Circuit: * C:\Users\mzahedi\Documents\Git\RoboFriend\simulation\vin-ver-3\vin.asc

WARNING: Less than two connections to node AUDIOAMP.  This node is used by S1.
Direct Newton iteration failed to find .op point.  (Use ".option noopiter" to skip.)
Starting Gmin stepping
Gmin = 10
Gmin = 1.07374
Gmin = 0.115292
Gmin = 0.0123794
Gmin = 0.00132923
Gmin = 0.000142725
Gmin = 1.5325e-005
Gmin = 1.6455e-006
Gmin = 1.76685e-007
Gmin = 1.89714e-008
Gmin = 2.03704e-009
Gmin = 2.18725e-010
Gmin = 2.34854e-011
Gmin = 2.52173e-012
Gmin = 2.70769e-013
Gmin = 0
Gmin stepping succeeded in finding the operating point.


Date: Mon Jun 11 19:40:31 2018
Total elapsed time: 0.374 seconds.

tnom = 27
temp = 27
method = modified trap
totiter = 9965
traniter = 9614
tranpoints = 2972
accept = 2330
rejected = 642
matrix size = 56
fillins = 29
solver = Normal
Matrix Compiler1: 5.55 KB object code size  2.2/1.2/[0.7]
Matrix Compiler2: 5.19 KB object code size  1.0/1.2/[0.6]

