Circuit: * C:\Users\mzahedi\Documents\Git\RoboFriend\simulation\vin-final\vin.asc

WARNING: Node NC_01 is floating.

WARNING: Less than two connections to node NC_01.  This node is used by C2.
Direct Newton iteration failed to find .op point.  (Use ".option noopiter" to skip.)
Starting Gmin stepping
Gmin = 10
Gmin = 1.07374
Gmin = 0.115292
Gmin = 0.0123794
Gmin = 0.00132923
vernier = 0.5
vernier = 0.25
vernier = 0.125
vernier = 0.0625
Gmin = 0.000604946
vernier = 0.03125
vernier = 0.0416667
Gmin = 0.000558234
vernier = 0.0555555
vernier = 0.074074
Gmin = 0.000485216
vernier = 0.0987653
Gmin = 0.000389494
vernier = 0.131687
vernier = 0.175583
Gmin = 0.000270065
vernier = 0.23411
vernier = 0.312147
Gmin = 0.000151591
vernier = 0.416196
Gmin = 6.1974e-005
vernier = 0.554928
vernier = 0.739903
Gmin = 1.44159e-005
vernier = 0.986537
vernier = 1
Gmin = 1.75053e-006
Gmin = 1.87962e-007
Gmin = 2.01822e-008
Gmin = 2.16705e-009
Gmin = 2.32685e-010
Gmin = 2.49844e-011
Gmin = 2.68268e-012
Gmin = 2.8805e-013
Gmin = 0
Gmin stepping succeeded in finding the operating point.


Date: Thu Nov 08 13:43:06 2018
Total elapsed time: 0.424 seconds.

tnom = 27
temp = 27
method = modified trap
totiter = 9373
traniter = 8213
tranpoints = 3019
accept = 2521
rejected = 498
matrix size = 51
fillins = 19
solver = Normal
Matrix Compiler1: 3.91 KB object code size  1.6/0.8/[0.6]
Matrix Compiler2: 4.62 KB object code size  1.0/1.3/[0.6]

