Circuit: * C:\Users\mzahedi\Documents\Git\RoboFriend\simulation\vin-final\vin.asc

WARNING: Node NC_02 is floating.

WARNING: Less than two connections to node NC_01.  This node is used by S:X4:1.
WARNING: Less than two connections to node NC_02.  This node is used by C2.
Direct Newton iteration failed to find .op point.  (Use ".option noopiter" to skip.)
Starting Gmin stepping
Gmin = 10
Gmin = 1.07374
Gmin = 0.115292
Gmin = 0.0123794
Gmin = 0.00132923
Gmin = 0.000142725
Gmin = 1.5325e-005
Gmin = 1.6455e-006
vernier = 0.5
vernier = 0.25
vernier = 0.125
vernier = 0.0625
vernier = 0.03125
vernier = 0.015625
vernier = 0.0078125
vernier = 0.00390625
vernier = 0.00195313
Gmin = 1.6455e-006
vernier = 0.000976563
vernier = 0.000488281
Gmin = 0
Gmin stepping failed

Starting source stepping with srcstepmethod=0
Source Step = 3.0303%
vernier = 0.25
Source Step = 0.0177557%
Starting source stepping with srcstepmethod=1
Source Step = 3.0303%
vernier = 0.25
Source stepping failed

Pseudo Transient succeeded in finding the operating point at 327.696 ms.

Date: Tue Aug 07 17:54:55 2018
Total elapsed time: 2.055 seconds.

tnom = 27
temp = 27
method = modified trap
totiter = 65488
traniter = 57301
tranpoints = 21442
accept = 15627
rejected = 5825
matrix size = 51
fillins = 25
solver = Normal
Matrix Compiler1: 3.71 KB object code size  1.5/0.7/[0.4]
Matrix Compiler2: 4.62 KB object code size  0.6/1.0/[0.6]

