Circuit: * C:\Users\mzahedi\Documents\Git\RoboFriend\simulation\vin-final\vin.asc

WARNING: Node NC_01 is floating.

WARNING: Less than two connections to node NC_01.  This node is used by C2.
WARNING: Less than two connections to node +12V.  This node is used by V4.
Direct Newton iteration failed to find .op point.  (Use ".option noopiter" to skip.)
Starting Gmin stepping
Gmin = 10
Gmin = 1.07374
Gmin = 0.115292
Gmin = 0.0123794
Gmin = 0.00132923
Gmin = 0.000142725
Gmin = 1.5325e-005
Gmin = 1.6455e-006
vernier = 0.5
vernier = 0.25
vernier = 0.125
vernier = 0.0625
vernier = 0.03125
vernier = 0.015625
vernier = 0.0078125
vernier = 0.00390625
vernier = 0.00195313
Gmin = 1.6455e-006
vernier = 0.000976563
vernier = 0.000488281
Gmin = 0
Gmin stepping failed

Starting source stepping with srcstepmethod=0
Source Step = 3.0303%
vernier = 0.25
Source Step = 0.0177557%
Starting source stepping with srcstepmethod=1
Source Step = 3.0303%
vernier = 0.25
Source stepping failed

Pseudo Transient succeeded in finding the operating point at 327.695 ms.

Date: Sun Aug 12 00:39:59 2018
Total elapsed time: 2.831 seconds.

tnom = 27
temp = 27
method = modified trap
totiter = 69488
traniter = 61390
tranpoints = 23830
accept = 17260
rejected = 6579
matrix size = 51
fillins = 22
solver = Normal
Matrix Compiler1: 3.82 KB object code size  1.7/0.9/[0.5]
Matrix Compiler2: 4.58 KB object code size  1.0/1.2/[0.6]

