Circuit: * C:\Users\mzahedi\Documents\Git\RoboFriend\simulation\vin-final\vin.asc

WARNING: Node NC_01 is floating.

WARNING: Less than two connections to node NC_01.  This node is used by C2.
WARNING: Less than two connections to node +12V.  This node is used by V4.
Direct Newton iteration failed to find .op point.  (Use ".option noopiter" to skip.)
Starting Gmin stepping
Gmin = 10
Gmin = 1.07374
Gmin = 0.115292
Gmin = 0.0123794
Gmin = 0.00132923
Gmin = 0.000142725
Gmin = 1.5325e-005
Gmin = 1.6455e-006
vernier = 0.5
vernier = 0.25
vernier = 0.125
vernier = 0.0625
vernier = 0.03125
vernier = 0.015625
vernier = 0.0078125
vernier = 0.00390625
vernier = 0.00195313
Gmin = 1.6455e-006
vernier = 0.000976563
vernier = 0.000488281
Gmin = 0
Gmin stepping failed

Starting source stepping with srcstepmethod=0
Source Step = 3.0303%
vernier = 0.25
Source Step = 0.0177557%
Starting source stepping with srcstepmethod=1
Source Step = 3.0303%
vernier = 0.25
Source stepping failed

Pseudo Transient succeeded in finding the operating point at 503.32 ms.

Date: Thu Aug 09 22:39:44 2018
Total elapsed time: 0.614 seconds.

tnom = 27
temp = 27
method = modified trap
totiter = 20251
traniter = 12094
tranpoints = 4003
accept = 3212
rejected = 802
matrix size = 48
fillins = 20
solver = Normal
Matrix Compiler1: 3.26 KB object code size  1.4/0.5/[0.4]
Matrix Compiler2: off  [0.6]/0.9/0.8

