Circuit: * C:\Users\mzahedi\Documents\Git\RoboFriend\simulation\vin-final\vin.asc

WARNING: Node NC_01 is floating.

WARNING: Less than two connections to node NC_01.  This node is used by C2.
Direct Newton iteration failed to find .op point.  (Use ".option noopiter" to skip.)
Starting Gmin stepping
Gmin = 10
Gmin = 1.07374
Gmin = 0.115292
Gmin = 0.0123794
Gmin = 0.00132923
vernier = 0.5
vernier = 0.25
vernier = 0.125
Gmin = 0.000620551
vernier = 0.166667
vernier = 0.222222
vernier = 0.111111
Gmin = 0.000456748
vernier = 0.0555555
vernier = 0.074074
Gmin = 0.000396141
vernier = 0.0987653
vernier = 0.131687
Gmin = 0.000309185
vernier = 0.175583
Gmin = 0.000209897
vernier = 0.23411
vernier = 0.312147
Gmin = 0.000110474
vernier = 0.416196
vernier = 0.554928
Gmin = 4.0478e-005
vernier = 0.739903
Gmin = 8.69513e-006
vernier = 0.986537
vernier = 1
Gmin = 9.48858e-007
Gmin = 1.01883e-007
Gmin = 1.09396e-008
Gmin = 1.17463e-009
Gmin = 1.26125e-010
Gmin = 1.35426e-011
Gmin = 1.45412e-012
Gmin = 1.56135e-013
Gmin = 0
Gmin stepping succeeded in finding the operating point.


Date: Mon Oct 22 17:51:38 2018
Total elapsed time: 0.541 seconds.

tnom = 27
temp = 27
method = modified trap
totiter = 9020
traniter = 7720
tranpoints = 2854
accept = 2403
rejected = 451
matrix size = 51
fillins = 19
solver = Normal
Matrix Compiler1: 3.93 KB object code size  1.7/0.8/[0.5]
Matrix Compiler2: 4.62 KB object code size  1.1/1.2/[0.6]

