Circuit: * C:\Users\mzahedi\Documents\Git\RoboFriend\simulation\vin\vin.asc

Direct Newton iteration failed to find .op point.  (Use ".option noopiter" to skip.)
Starting Gmin stepping
Gmin = 10
Gmin = 1.07374
Gmin = 0.115292
Gmin = 0.0123794
Gmin = 0.00132923
Gmin = 0.000142725
Gmin = 1.5325e-005
Gmin = 1.6455e-006
Gmin = 1.76685e-007
Gmin = 1.89714e-008
Gmin = 2.03704e-009
Gmin = 2.18725e-010
Gmin = 2.34854e-011
Gmin = 2.52173e-012
Gmin = 2.70769e-013
Gmin = 0
Gmin stepping succeeded in finding the operating point.

Ignoring empty pin current: Ix(u3:1)
Ignoring empty pin current: Ix(u3:2)
Ignoring empty pin current: Ix(u3:1)
Ignoring empty pin current: Ix(u3:2)
Heightened Def Con from 2.00099 to 2.00099
Heightened Def Con from 2.00099 to 2.00099
Heightened Def Con from 2.00099 to 2.00099
Heightened Def Con from 2.00099 to 2.00099
Heightened Def Con from 2.00099 to 2.00099
Heightened Def Con from 2.00099 to 2.00099
Heightened Def Con from 2.00099 to 2.00099
Heightened Def Con from 2.00099 to 2.00099
Heightened Def Con from 2.00099 +to 2.00099
Heightened Def Con from 2.00099 +to 2.00099
Heightened Def Con from 2.00099 +to 2.00099
Heightened Def Con from 2.00099 +to 2.00099
Heightened Def Con from 2.00099 +to 2.00099
Heightened Def Con from 2.00099 ++to 2.00099
Heightened Def Con from 2.00099 ++to 2.00099
Heightened Def Con from 2.00099 ++to 2.00099
Heightened Def Con from 2.00099 ++to 2.00099
Heightened Def Con from 2.00099 ++to 2.00099
Heightened Def Con from 2.00099 ++to 2.00099
Heightened Def Con from 2.00099 ++to 2.00099
Heightened Def Con from 2.00099 +++to 2.00099
Heightened Def Con from 2.00099 +++to 2.00099
Heightened Def Con from 2.00099 +++to 2.00099
Heightened Def Con from 2.00099 +++to 2.00099
Heightened Def Con from 2.00099 +++to 2.00099
Heightened Def Con from 2.00099 +++to 2.00099
Heightened Def Con from 2.00099 +++to 2.00099
Heightened Def Con from 2.00099 +++to 2.00099
Heightened Def Con from 2.00099 +++to 2.00099
Heightened Def Con from 2.00099 +++to 2.00099
Heightened Def Con from 2.00099 +++to 2.00099
Heightened Def Con from 2.00099 +++to 2.00099
Heightened Def Con from 2.00099 +++to 2.00099
Heightened Def Con from 2.00099 +++to 2.00099
Heightened Def Con from 2.00099 +++to 2.00099
Heightened Def Con from 2.00099 ++++to 2.00099
Heightened Def Con from 2.00099 ++++to 2.00099
Heightened Def Con from 2.00099 ++++to 2.00099
Heightened Def Con from 2.00099 ++++to 2.00099
Heightened Def Con from 2.00099 ++++to 2.00099
Heightened Def Con from 2.00099 ++++to 2.00099
Heightened Def Con from 2.00099 ++++to 2.00099
Heightened Def Con from 2.00099 ++++to 2.00099
Heightened Def Con from 2.00099 ++++to 2.00099
Heightened Def Con from 2.00099 ++++to 2.00099
Heightened Def Con from 2.00099 +++++to 2.00099
Heightened Def Con from 2.00099 +++++to 2.00099
Heightened Def Con from 2.00099 +++++to 2.00099
Heightened Def Con from 2.00099 +++++to 2.00099
Heightened Def Con from 2.00099 +++++to 2.00099
Heightened Def Con from 2.00099 +++++to 2.00099
Heightened Def Con from 2.00099 +++++to 2.00099
Heightened Def Con from 2.00099 +++++to 2.00099
Heightened Def Con from 2.00099 +++++to 2.00099
Heightened Def Con from 2.00099 +++++to 2.00099
Heightened Def Con from 2.00099 +++++to 2.00099
Heightened Def Con from 2.00099 +++++to 2.00099
Heightened Def Con from 2.00099 ++++++to 2.00099
Heightened Def Con from 2.00099 ++++++to 2.00099
Heightened Def Con from 2.00099 ++++++to 2.00099
Heightened Def Con from 2.00099 ++++++to 2.00099
Heightened Def Con from 2.00099 ++++++to 2.00099
Heightened Def Con from 2.00099 ++++++to 2.00099
Heightened Def Con from 2.00099 ++++++to 2.00099
Heightened Def Con from 2.00099 ++++++to 2.00099
Heightened Def Con from 2.00099 ++++++to 2.00099
Heightened Def Con from 2.00099 ++++++to 2.00099
Heightened Def Con from 2.00099 ++++++to 2.00099
Heightened Def Con from 2.00099 ++++++to 2.00099
Heightened Def Con from 2.00099 ++++++to 2.00099
Heightened Def Con from 2.00099 ++++++to 2.00099
Heightened Def Con from 2.00099 ++++++to 2.00099
Heightened Def Con from 2.00099 ++++++to 2.00099
Heightened Def Con from 2.00099 ++++++to 2.00099
Heightened Def Con from 2.00099 ++++++to 2.00099
Heightened Def Con from 2.00099 ++++++to 2.00099
Heightened Def Con from 2.00099 +++++++to 2.00099
Heightened Def Con from 2.00099 +++++++to 2.00099
Heightened Def Con from 2.00099 +++++++to 2.00099
Heightened Def Con from 2.00099 +++++++to 2.00099
Heightened Def Con from 2.00099 +++++++to 2.00099
Heightened Def Con from 2.00099 +++++++to 2.00099
Heightened Def Con from 2.00099 +++++++to 2.00099
Heightened Def Con from 2.00099 +++++++to 2.00099
Heightened Def Con from 2.00099 +++++++to 2.00099
Heightened Def Con from 2.00099 +++++++to 2.00099
Heightened Def Con from 2.00099 +++++++to 2.00099
Heightened Def Con from 2.00099 +++++++to 2.00099
Heightened Def Con from 2.00099 +++++++to 2.00099
Heightened Def Con from 2.00099 +++++++to 2.00099
Heightened Def Con from 2.00099 +++++++to 2.00099
Heightened Def Con from 2.00099 +++++++to 2.00099
Heightened Def Con from 2.00099 +++++++to 2.00099
Heightened Def Con from 2.00099 +++++++to 2.00099
Heightened Def Con from 2.00099 ++++++++to 2.00099
Heightened Def Con from 2.00099 ++++++++to 2.00099
Heightened Def Con from 2.00099 ++++++++to 2.00099
Heightened Def Con from 2.00099 ++++++++to 2.00099
Heightened Def Con from 2.00099 ++++++++to 2.00099
Heightened Def Con from 2.00099 ++++++++to 2.00099
Heightened Def Con from 2.00099 ++++++++to 2.00099
Heightened Def Con from 2.00099 ++++++++to 2.00099
Heightened Def Con from 2.00099 ++++++++to 2.00099
Heightened Def Con from 2.00099 ++++++++to 2.00099
Heightened Def Con from 2.00099 ++++++++to 2.00099
Heightened Def Con from 2.00099 ++++++++to 2.00099
Heightened Def Con from 2.00099 ++++++++to 2.00099
Heightened Def Con from 2.00099 ++++++++to 2.00099
Heightened Def Con from 2.00099 ++++++++to 2.00099
Heightened Def Con from 2.00099 ++++++++to 2.00099
Heightened Def Con from 2.00099 ++++++++to 2.00099
Heightened Def Con from 2.00099 ++++++++to 2.00099
Heightened Def Con from 2.00099 ++++++++to 2.00099
Heightened Def Con from 2.00099 ++++++++to 2.00099
Heightened Def Con from 2.00099 ++++++++to 2.00099
Heightened Def Con from 2.00099 ++++++++to 2.00099
Heightened Def Con from 2.00099 +++++++++to 2.00099
Heightened Def Con from 2.00099 +++++++++to 2.00099
Heightened Def Con from 2.00099 +++++++++to 2.00099
Heightened Def Con from 2.00099 +++++++++to 2.00099
Heightened Def Con from 2.00099 +++++++++to 2.00099
Heightened Def Con from 2.00099 +++++++++to 2.00099
Heightened Def Con from 2.00099 +++++++++to 2.00099
Heightened Def Con from 2.00099 +++++++++to 2.00099
Heightened Def Con from 2.00099 +++++++++to 2.00099
Heightened Def Con from 2.00099 +++++++++to 2.00099
Heightened Def Con from 2.00099 +++++++++to 2.00099
Heightened Def Con from 2.00099 +++++++++to 2.00099
Heightened Def Con from 2.00099 +++++++++to 2.00099
Heightened Def Con from 2.00099 +++++++++to 2.00099
Heightened Def Con from 2.00099 +++++++++to 2.00099
Heightened Def Con from 2.00099 +++++++++to 2.00099
Heightened Def Con from 2.00099 +++++++++to 2.00099
Heightened Def Con from 2.00099 +++++++++to 2.00099
Heightened Def Con from 2.00099 +++++++++to 2.00099
Heightened Def Con from 2.00099 +++++++++to 2.00099
Heightened Def Con from 2.00099 +++++++++to 2.00099
Heightened Def Con from 2.00099 +++++++++to 2.00099
Heightened Def Con from 2.00099 ++++++++++to 2.00099
Heightened Def Con from 2.00099 +++++++++to 2.00099
Heightened Def Con from 2.00099 +++++++++to 2.00099
Heightened Def Con from 2.00099 +++++++++to 2.00099
Heightened Def Con from 2.00099 +++++++++to 2.00099
Heightened Def Con from 2.00099 +++++++++to 2.00099
Heightened Def Con from 2.00099 +++++++++to 2.00099
Heightened Def Con from 2.00099 +++++++++to 2.00099
Heightened Def Con from 2.00099 +++++++++to 2.00099
Heightened Def Con from 2.00099 +++++++++to 2.00099
Heightened Def Con from 2.00099 +++++++++to 2.00099
Heightened Def Con from 2.00099 +++++++++to 2.00099
Heightened Def Con from 2.00099 +++++++++to 2.00099
Heightened Def Con from 2.00099 +++++++++to 2.00099
Heightened Def Con from 2.00099 +++++++++to 2.00099
Heightened Def Con from 2.00099 ++++++++++to 2.00099
Heightened Def Con from 2.00099 ++++++++++to 2.00099
Heightened Def Con from 2.00099 ++++++++++to 2.00099
Heightened Def Con from 2.00099 ++++++++++to 2.00099
Heightened Def Con from 2.00099 ++++++++++to 2.00099
Heightened Def Con from 2.00099 ++++++++++to 2.00099
Heightened Def Con from 2.00099 ++++++++++to 2.00099
Heightened Def Con from 2.00099 ++++++++++to 2.00099
Heightened Def Con from 2.00099 ++++++++++to 2.00099
Heightened Def Con from 2.00099 ++++++++++to 2.00099
Heightened Def Con from 2.00099 ++++++++++to 2.00099
Heightened Def Con from 2.00099 ++++++++++to 2.00099
Heightened Def Con from 2.00099 ++++++++++to 2.00099
Heightened Def Con from 2.00099 ++++++++++to 2.00099
Heightened Def Con from 2.00099 ++++++++++to 2.00099
Heightened Def Con from 2.00099 ++++++++++to 2.00099
Heightened Def Con from 2.00099 ++++++++++to 2.00099
Heightened Def Con from 2.00099 ++++++++++to 2.00099
Heightened Def Con from 2.00099 ++++++++++to 2.00099
Heightened Def Con from 2.00099 ++++++++++to 2.00099
Heightened Def Con from 2.00099 ++++++++++to 2.00099
Heightened Def Con from 2.00099 +++++++++++to 2.00099
Heightened Def Con from 2.00099 +++++++++to 2.00099
Heightened Def Con from 2.00099 +++++++++to 2.00099
Heightened Def Con from 2.00099 +++++++++to 2.00099
Heightened Def Con from 2.00099 +++++++++to 2.00099
Heightened Def Con from 2.00099 +++++++++to 2.00099
Heightened Def Con from 2.00099 +++++++++to 2.00099
Heightened Def Con from 2.00099 +++++++++to 2.00099
Heightened Def Con from 2.00099 +++++++++to 2.00099
Heightened Def Con from 2.00099 +++++++++to 2.00099
Heightened Def Con from 2.00099 +++++++++to 2.00099
Heightened Def Con from 2.00099 +++++++++to 2.00099
Heightened Def Con from 2.00099 +++++++++to 2.00099
Heightened Def Con from 2.00099 +++++++++to 2.00099
Heightened Def Con from 2.00099 +++++++++to 2.00099
Heightened Def Con from 2.00099 ++++++++++to 2.00099
Heightened Def Con from 2.00099 ++++++++++to 2.00099
Heightened Def Con from 2.00099 ++++++++++to 2.00099
Heightened Def Con from 2.00099 ++++++++++to 2.00099
Heightened Def Con from 2.00099 ++++++++++to 2.00099
Heightened Def Con from 2.00099 ++++++++++to 2.00099
Heightened Def Con from 2.00099 ++++++++++to 2.00099
Heightened Def Con from 2.00099 ++++++++++to 2.00099
Heightened Def Con from 2.00099 ++++++++++to 2.00099
Heightened Def Con from 2.00099 ++++++++++to 2.00099
Heightened Def Con from 2.00099 ++++++++++to 2.00099
Heightened Def Con from 2.00099 ++++++++++to 2.00099
Heightened Def Con from 2.00099 ++++++++++to 2.00099
Heightened Def Con from 2.00099 ++++++++++to 2.00099
Heightened Def Con from 2.00099 +++++++++++to 2.00099
Heightened Def Con from 2.00099 ++++++++++to 2.00099
Heightened Def Con from 2.00099 ++++++++++to 2.00099
Heightened Def Con from 2.00099 ++++++++++to 2.00099
Heightened Def Con from 2.00099 ++++++++++to 2.00099
Heightened Def Con from 2.00099 ++++++++++to 2.00099
Heightened Def Con from 2.00099 ++++++++++to 2.00099
Heightened Def Con from 2.00099 ++++++++++to 2.00099
Heightened Def Con from 2.00099 ++++++++++to 2.00099
Heightened Def Con from 2.00099 ++++++++++to 2.00099
Heightened Def Con from 2.00099 ++++++++++to 2.00099
Heightened Def Con from 2.00099 ++++++++++to 2.00099
Heightened Def Con from 2.00099 ++++++++++to 2.00099
Heightened Def Con from 2.00099 ++++++++++to 2.00099
Heightened Def Con from 2.00099 ++++++++++to 2.00099
Heightened Def Con from 2.00099 ++++++++++to 2.00099
Heightened Def Con from 2.00099 ++++++++++to 2.00099
Heightened Def Con from 2.00099 ++++++++++to 2.00099
Heightened Def Con from 2.00099 ++++++++++to 2.00099
Heightened Def Con from 2.00099 ++++++++++to 2.00099
Heightened Def Con from 2.00099 ++++++++++to 2.00099
Heightened Def Con from 2.00099 +++++++++++to 2.00099
Heightened Def Con from 2.00099 ++++++++++to 2.00099
Heightened Def Con from 2.00099 ++++++++++to 2.00099
Heightened Def Con from 2.00099 ++++++++++to 2.00099
Heightened Def Con from 2.00099 ++++++++++to 2.00099
Heightened Def Con from 2.00099 ++++++++++to 2.00099
Heightened Def Con from 2.00099 ++++++++++to 2.00099
Heightened Def Con from 2.00099 ++++++++++to 2.00099
Heightened Def Con from 2.00099 ++++++++++to 2.00099
Heightened Def Con from 2.00099 ++++++++++to 2.00099
Heightened Def Con from 2.00099 ++++++++++to 2.00099
Heightened Def Con from 2.00099 ++++++++++to 2.00099
Heightened Def Con from 2.00099 ++++++++++to 2.00099
Heightened Def Con from 2.00099 ++++++++++to 2.00099
Heightened Def Con from 2.00099 ++++++++++to 2.00099
Heightened Def Con from 2.00099 ++++++++++to 2.00099
Heightened Def Con from 2.00099 ++++++++++to 2.00099
Heightened Def Con from 2.00099 ++++++++++to 2.00099
Heightened Def Con from 2.00099 ++++++++++to 2.00099
Heightened Def Con from 2.00099 ++++++++++to 2.00099
Heightened Def Con from 2.00099 +++++++++++to 2.00099
Heightened Def Con from 2.00099 +++++++++++to 2.00099
Heightened Def Con from 2.00099 +++++++++++to 2.00099
Heightened Def Con from 2.00099 +++++++++++to 2.00099
Heightened Def Con from 2.00099 +++++++++++to 2.00099
Heightened Def Con from 2.00099 +++++++++++to 2.00099
Heightened Def Con from 2.00099 +++++++++++to 2.00099
Heightened Def Con from 2.00099 +++++++++++to 2.00099
Heightened Def Con from 2.00099 +++++++++++to 2.00099
Heightened Def Con from 2.00099 +++++++++++to 2.00099
Heightened Def Con from 2.00099 +++++++++++to 2.00099
Heightened Def Con from 2.00099 +++++++++++to 2.00099
Heightened Def Con from 2.00099 +++++++++++to 2.00099
Heightened Def Con from 2.00099 ++++++++++++to 2.00099
Heightened Def Con from 2.00099 ++++++++++++to 2.00099
Heightened Def Con from 2.00099 ++++++++++++to 2.00099
Heightened Def Con from 2.00099 ++++++++++++to 2.00099
Heightened Def Con from 2.00099 ++++++++++++to 2.00099
Heightened Def Con from 2.00099 ++++++++++++to 2.00099
Heightened Def Con from 2.00099 ++++++++++++to 2.00099
Heightened Def Con from 2.00099 ++++++++++++to 2.00099
Heightened Def Con from 2.00099 ++++++++++++to 2.00099
Heightened Def Con from 2.00099 ++++++++++++to 2.00099
Heightened Def Con from 2.00099 ++++++++++++to 2.00099
Heightened Def Con from 2.00099 ++++++++++++to 2.00099
Heightened Def Con from 2.00099 ++++++++++++to 2.00099
Heightened Def Con from 2.00099 ++++++++++++to 2.00099
Heightened Def Con from 2.00099 ++++++++++++to 2.00099
Heightened Def Con from 2.00099 ++++++++++++to 2.00099
Heightened Def Con from 2.00099 ++++++++++++to 2.00099
Heightened Def Con from 2.00099 ++++++++++++to 2.00099
Heightened Def Con from 2.00099 ++++++++++++to 2.00099
Heightened Def Con from 2.00099 ++++++++++++to 2.00099
Heightened Def Con from 2.00099 ++++++++++++to 2.00099
Heightened Def Con from 2.00099 ++++++++++++to 2.00099
Heightened Def Con from 2.00099 ++++++++++++to 2.00099
Heightened Def Con from 2.00099 ++++++++++++to 2.00099
Heightened Def Con from 2.00099 ++++++++++++to 2.00099
Heightened Def Con from 2.00099 ++++++++++++to 2.00099
Heightened Def Con from 2.00099 ++++++++++++to 2.00099
Heightened Def Con from 2.00099 ++++++++++++to 2.00099
Heightened Def Con from 2.00099 ++++++++++++to 2.00099
Heightened Def Con from 2.00099 ++++++++++++to 2.00099
Heightened Def Con from 2.00099 +++++++++++++to 2.00099
Heightened Def Con from 2.00099 +++++++++++to 2.00099
Heightened Def Con from 2.00099 +++++++++++to 2.00099
Heightened Def Con from 2.00099 +++++++++++to 2.00099
Heightened Def Con from 2.00099 +++++++++++to 2.00099
Heightened Def Con from 2.00099 +++++++++++to 2.00099
Heightened Def Con from 2.00099 +++++++++++to 2.00099
Heightened Def Con from 2.00099 +++++++++++to 2.00099
Heightened Def Con from 2.00099 +++++++++++to 2.00099
Heightened Def Con from 2.00099 +++++++++++to 2.00099
Heightened Def Con from 2.00099 +++++++++++to 2.00099
Heightened Def Con from 2.00099 +++++++++++to 2.00099
Heightened Def Con from 2.00099 +++++++++++to 2.00099
Heightened Def Con from 2.00099 +++++++++++to 2.00099
Heightened Def Con from 2.00099 +++++++++++to 2.00099
Heightened Def Con from 2.00099 ++++++++++++to 2.00099
Heightened Def Con from 2.00099 ++++++++++++to 2.00099
Heightened Def Con from 2.00099 ++++++++++++to 2.00099
Heightened Def Con from 2.00099 ++++++++++++to 2.00099
Heightened Def Con from 2.00099 ++++++++++++to 2.00099
Heightened Def Con from 2.00099 ++++++++++++to 2.00099
Heightened Def Con from 2.00099 ++++++++++++to 2.00099
Heightened Def Con from 2.00099 ++++++++++++to 2.00099
Heightened Def Con from 2.00099 ++++++++++++to 2.00099
Heightened Def Con from 2.00099 ++++++++++++to 2.00099
Heightened Def Con from 2.00099 ++++++++++++to 2.00099
Heightened Def Con from 2.00099 ++++++++++++to 2.00099
Heightened Def Con from 2.00099 ++++++++++++to 2.00099
Heightened Def Con from 2.00099 ++++++++++++to 2.00099
Heightened Def Con from 2.00099 ++++++++++++to 2.00099
Heightened Def Con from 2.00099 ++++++++++++to 2.00099
Heightened Def Con from 2.00099 ++++++++++++to 2.00099
Heightened Def Con from 2.00099 ++++++++++++to 2.00099
Heightened Def Con from 2.00099 ++++++++++++to 2.00099
Heightened Def Con from 2.00099 ++++++++++++to 2.00099
Heightened Def Con from 2.00099 ++++++++++++to 2.00099
Heightened Def Con from 2.00099 +++++++++++++to 2.00099
Heightened Def Con from 2.00099 +++++++++++++to 2.00099
Heightened Def Con from 2.00099 +++++++++++++to 2.00099
Heightened Def Con from 2.00099 +++++++++++++to 2.00099
Heightened Def Con from 2.00099 +++++++++++++to 2.00099
Heightened Def Con from 2.00099 +++++++++++++to 2.00099
Heightened Def Con from 2.00099 +++++++++++++to 2.00099
Heightened Def Con from 2.00099 +++++++++++++to 2.00099
Heightened Def Con from 2.00099 +++++++++++++to 2.00099
Heightened Def Con from 2.00099 +++++++++++++to 2.00099
Heightened Def Con from 2.00099 +++++++++++++to 2.00099
Heightened Def Con from 2.00099 +++++++++++++to 2.00099
Heightened Def Con from 2.00099 +++++++++++++to 2.00099
Heightened Def Con from 2.00099 +++++++++++++to 2.00099
Heightened Def Con from 2.00099 +++++++++++++to 2.00099
Heightened Def Con from 2.00099 +++++++++++++to 2.00099
Heightened Def Con from 2.00099 +++++++++++++to 2.00099
Heightened Def Con from 2.00099 +++++++++++++to 2.00099
Heightened Def Con from 2.00099 ++++++++++++++to 2.00099
Heightened Def Con from 2.00099 to 2.00099
Heightened Def Con from 2.00099 +to 2.00099
Heightened Def Con from 2.00099 +to 2.00099
Heightened Def Con from 2.00099 ++to 2.00099
Heightened Def Con from 2.00099 ++to 2.00099
Heightened Def Con from 2.00099 ++to 2.00099
Heightened Def Con from 2.00099 +++to 2.00099
Heightened Def Con from 2.00099 +++to 2.00099
Heightened Def Con from 2.00099 +++to 2.00099
Heightened Def Con from 2.00099 +++to 2.00099
Heightened Def Con from 2.00099 +++to 2.00099
Heightened Def Con from 2.00099 +++to 2.00099
Heightened Def Con from 2.00099 ++++to 2.00099
Heightened Def Con from 2.00099 ++++to 2.00099
Heightened Def Con from 2.00099 ++++to 2.00099
Heightened Def Con from 2.00099 ++++to 2.00099
Heightened Def Con from 2.00099 ++++to 2.00099
Heightened Def Con from 2.00099 ++++to 2.00099
Heightened Def Con from 2.00099 +++++to 2.00099
Heightened Def Con from 2.00099 +++++to 2.00099
Heightened Def Con from 2.00099 +++++to 2.00099
Heightened Def Con from 2.00099 ++++++to 2.00099
Heightened Def Con from 2.00099 ++++++to 2.00099
Heightened Def Con from 2.00099 ++++++to 2.00099
Heightened Def Con from 2.00099 ++++++to 2.00099
Heightened Def Con from 2.00099 ++++++to 2.00099
Heightened Def Con from 2.00099 ++++++to 2.00099
Heightened Def Con from 2.00099 ++++++to 2.00099
Heightened Def Con from 2.00099 ++++++to 2.00099
Heightened Def Con from 2.00099 ++++++to 2.00099
Heightened Def Con from 2.00099 ++++++to 2.00099
Heightened Def Con from 2.00099 ++++++to 2.00099
Heightened Def Con from 2.00099 ++++++to 2.00099
Heightened Def Con from 2.00099 +++++++to 2.00099
Heightened Def Con from 2.00099 +++++++to 2.00099
Heightened Def Con from 2.00099 +++++++to 2.00099
Heightened Def Con from 2.00099 +++++++to 2.00099
Heightened Def Con from 2.00099 +++++++to 2.00099
Heightened Def Con from 2.00099 ++++++++to 2.00099
Heightened Def Con from 2.00099 ++++++++to 2.00099
Heightened Def Con from 2.00099 ++++++++to 2.00099
Heightened Def Con from 2.00099 ++++++++to 2.00099
Heightened Def Con from 2.00099 ++++++++to 2.00099
Heightened Def Con from 2.00099 ++++++++to 2.00099
Heightened Def Con from 2.00099 ++++++++to 2.00099
Heightened Def Con from 2.00099 ++++++++to 2.00099
Heightened Def Con from 2.00099 +++++++++to 2.00099
Heightened Def Con from 2.00099 +++++++++to 2.00099
Heightened Def Con from 2.00099 +++++++++to 2.00099
Heightened Def Con from 2.00099 +++++++++to 2.00099
Heightened Def Con from 2.00099 +++++++++to 2.00099
Heightened Def Con from 2.00099 +++++++++to 2.00099
Heightened Def Con from 2.00099 +++++++++to 2.00099
Heightened Def Con from 2.00099 +++++++++to 2.00099
Heightened Def Con from 2.00099 +++++++++to 2.00099
Heightened Def Con from 2.00099 +++++++++to 2.00099
Heightened Def Con from 2.00099 +++++++++to 2.00099
Heightened Def Con from 2.00099 +++++++++to 2.00099
Heightened Def Con from 2.00099 +++++++++to 2.00099
Heightened Def Con from 2.00099 +++++++++to 2.00099
Heightened Def Con from 2.00099 ++++++++++to 2.00099
Heightened Def Con from 2.00099 ++++++++++to 2.00099
Heightened Def Con from 2.00099 ++++++++++to 2.00099
Heightened Def Con from 2.00099 ++++++++++to 2.00099
Heightened Def Con from 2.00099 ++++++++++to 2.00099
Heightened Def Con from 2.00099 ++++++++++to 2.00099
Heightened Def Con from 2.00099 ++++++++++to 2.00099
Heightened Def Con from 2.00099 ++++++++++to 2.00099
Heightened Def Con from 2.00099 ++++++++++to 2.00099
Heightened Def Con from 2.00099 ++++++++++to 2.00099
Heightened Def Con from 2.00099 ++++++++++to 2.00099
Heightened Def Con from 2.00099 ++++++++++to 2.00099
Heightened Def Con from 2.00099 +++++++++++to 2.00099
Heightened Def Con from 2.00099 +++++++++++to 2.00099
Heightened Def Con from 2.00099 +++++++++++to 2.00099
Heightened Def Con from 2.00099 +++++++++++to 2.00099
Heightened Def Con from 2.00099 +++++++++++to 2.00099
Heightened Def Con from 2.00099 +++++++++++to 2.00099
Heightened Def Con from 2.00099 ++++++++++++to 2.00099
Heightened Def Con from 2.00099 ++++++++++++to 2.00099
Heightened Def Con from 2.00099 ++++++++++++to 2.00099
Heightened Def Con from 2.00099 ++++++++++++to 2.00099
Heightened Def Con from 2.00099 ++++++++++++to 2.00099
Heightened Def Con from 2.00099 ++++++++++++to 2.00099
Heightened Def Con from 2.00099 ++++++++++++to 2.00099
Heightened Def Con from 2.00099 ++++++++++++to 2.00099
Heightened Def Con from 2.00099 ++++++++++++to 2.00099
Heightened Def Con from 2.00099 ++++++++++++to 2.00099
Heightened Def Con from 2.00099 ++++++++++++to 2.00099
Heightened Def Con from 2.00099 ++++++++++++to 2.00099
Heightened Def Con from 2.00099 ++++++++++++to 2.00099
Heightened Def Con from 2.00099 ++++++++++++to 2.00099
Heightened Def Con from 2.00099 ++++++++++++to 2.00099
Heightened Def Con from 2.00099 ++++++++++++to 2.00099
Heightened Def Con from 2.00099 ++++++++++++to 2.00099
Heightened Def Con from 2.00099 ++++++++++++to 2.00099
Heightened Def Con from 2.00099 ++++++++++++to 2.00099
Heightened Def Con from 2.00099 ++++++++++++to 2.00099
Heightened Def Con from 2.00099 ++++++++++++to 2.00099
Heightened Def Con from 2.00099 ++++++++++++to 2.00099
Heightened Def Con from 2.00099 ++++++++++++to 2.00099
Heightened Def Con from 2.00099 +++++++++++++to 2.00099
Heightened Def Con from 2.00099 +++++++++++++to 2.00099
Heightened Def Con from 2.00099 +++++++++++++to 2.00099
Heightened Def Con from 2.00099 +++++++++++++to 2.00099
Heightened Def Con from 2.00099 +++++++++++++to 2.00099
Heightened Def Con from 2.00099 +++++++++++++to 2.00099
Heightened Def Con from 2.00099 +++++++++++++to 2.00099
Heightened Def Con from 2.00099 +++++++++++++to 2.00099
Heightened Def Con from 2.00099 +++++++++++++to 2.00099
Heightened Def Con from 2.00099 +++++++++++++to 2.00099
Heightened Def Con from 2.00099 +++++++++++++to 2.00099
Heightened Def Con from 2.00099 +++++++++++++to 2.00099
Heightened Def Con from 2.00099 +++++++++++++to 2.00099
Heightened Def Con from 2.00099 +++++++++++++to 2.00099
Heightened Def Con from 2.00099 +++++++++++++to 2.00099
Heightened Def Con from 2.00099 +++++++++++++to 2.00099
Heightened Def Con from 2.00099 +++++++++++++to 2.00099
Heightened Def Con from 2.00099 +++++++++++++to 2.00099
Heightened Def Con from 2.00099 +++++++++++++to 2.00099
Heightened Def Con from 2.00099 +++++++++++++to 2.00099
Heightened Def Con from 2.00099 +++++++++++++to 2.00099
Heightened Def Con from 2.00099 +++++++++++++to 2.00099
Heightened Def Con from 2.00099 ++++++++++++++to 2.00099
Heightened Def Con from 2.00099 to 2.00099
Heightened Def Con from 2.00099 +to 2.00099
Heightened Def Con from 2.00099 ++to 2.00099
Heightened Def Con from 2.00099 ++to 2.00099
Heightened Def Con from 2.00099 +++to 2.00099
Heightened Def Con from 2.00099 +++to 2.00099
Heightened Def Con from 2.00099 +++to 2.00099
Heightened Def Con from 2.00099 ++++to 2.00099
Heightened Def Con from 2.00099 ++++to 2.00099
Heightened Def Con from 2.00099 ++++to 2.00099
Heightened Def Con from 2.00099 ++++to 2.00099
Heightened Def Con from 2.00099 ++++to 2.00099
Heightened Def Con from 2.00099 ++++to 2.00099
Heightened Def Con from 2.00099 ++++to 2.00099
Heightened Def Con from 2.00099 +++++to 2.00099
Heightened Def Con from 2.00099 +++++to 2.00099
Heightened Def Con from 2.00099 +++++to 2.00099
Heightened Def Con from 2.00099 +++++to 2.00099
Heightened Def Con from 2.00099 +++++to 2.00099
Heightened Def Con from 2.00099 +++++to 2.00099
Heightened Def Con from 2.00099 +++++to 2.00099
Heightened Def Con from 2.00099 ++++++to 2.00099
Heightened Def Con from 2.00099 ++++++to 2.00099
Heightened Def Con from 2.00099 ++++++to 2.00099
Heightened Def Con from 2.00099 ++++++to 2.00099
Heightened Def Con from 2.00099 ++++++to 2.00099
Heightened Def Con from 2.00099 ++++++to 2.00099
Heightened Def Con from 2.00099 ++++++to 2.00099
Heightened Def Con from 2.00099 +++++++to 2.00099
Heightened Def Con from 2.00099 +++++++to 2.00099
Heightened Def Con from 2.00099 +++++++to 2.00099
Heightened Def Con from 2.00099 +++++++to 2.00099
Heightened Def Con from 2.00099 +++++++to 2.00099
Heightened Def Con from 2.00099 +++++++to 2.00099
Heightened Def Con from 2.00099 +++++++to 2.00099
Heightened Def Con from 2.00099 +++++++to 2.00099
Heightened Def Con from 2.00099 +++++++to 2.00099
Heightened Def Con from 2.00099 +++++++to 2.00099
Heightened Def Con from 2.00099 +++++++to 2.00099
Heightened Def Con from 2.00099 +++++++to 2.00099
Heightened Def Con from 2.00099 +++++++to 2.00099
Heightened Def Con from 2.00099 ++++++++to 2.00099
Heightened Def Con from 2.00099 ++++++++to 2.00099
Heightened Def Con from 2.00099 ++++++++to 2.00099
Heightened Def Con from 2.00099 ++++++++to 2.00099
Heightened Def Con from 2.00099 ++++++++to 2.00099
Heightened Def Con from 2.00099 ++++++++to 2.00099
Heightened Def Con from 2.00099 ++++++++to 2.00099
Heightened Def Con from 2.00099 ++++++++to 2.00099
Heightened Def Con from 2.00099 ++++++++to 2.00099
Heightened Def Con from 2.00099 ++++++++to 2.00099
Heightened Def Con from 2.00099 ++++++++to 2.00099
Heightened Def Con from 2.00099 ++++++++to 2.00099
Heightened Def Con from 2.00099 ++++++++to 2.00099
Heightened Def Con from 2.00099 ++++++++to 2.00099
Heightened Def Con from 2.00099 +++++++++to 2.00099
Heightened Def Con from 2.00099 +++++++++to 2.00099
Heightened Def Con from 2.00099 +++++++++to 2.00099
Heightened Def Con from 2.00099 +++++++++to 2.00099
Heightened Def Con from 2.00099 +++++++++to 2.00099
Heightened Def Con from 2.00099 +++++++++to 2.00099
Heightened Def Con from 2.00099 +++++++++to 2.00099
Heightened Def Con from 2.00099 +++++++++to 2.00099
Heightened Def Con from 2.00099 +++++++++to 2.00099
Heightened Def Con from 2.00099 +++++++++to 2.00099
Heightened Def Con from 2.00099 +++++++++to 2.00099
Heightened Def Con from 2.00099 +++++++++to 2.00099
Heightened Def Con from 2.00099 +++++++++to 2.00099
Heightened Def Con from 2.00099 +++++++++to 2.00099
Heightened Def Con from 2.00099 ++++++++++to 2.00099
Heightened Def Con from 2.00099 ++++++++++to 2.00099
Heightened Def Con from 2.00099 ++++++++++to 2.00099
Heightened Def Con from 2.00099 +++++++++++to 2.00099
Heightened Def Con from 2.00099 +++++++++++to 2.00099
Heightened Def Con from 2.00099 +++++++++++to 2.00099
Heightened Def Con from 2.00099 +++++++++++to 2.00099
Heightened Def Con from 2.00099 +++++++++++to 2.00099
Heightened Def Con from 2.00099 +++++++++++to 2.00099
Heightened Def Con from 2.00099 +++++++++++to 2.00099
Heightened Def Con from 2.00099 ++++++++++++to 2.00099
Heightened Def Con from 2.00099 ++++++++++++to 2.00099
Heightened Def Con from 2.00099 ++++++++++++to 2.00099
Heightened Def Con from 2.00099 ++++++++++++to 2.00099
Heightened Def Con from 2.00099 ++++++++++++to 2.00099
Heightened Def Con from 2.00099 ++++++++++++to 2.00099
Heightened Def Con from 2.00099 ++++++++++++to 2.00099
Heightened Def Con from 2.00099 ++++++++++++to 2.00099
Heightened Def Con from 2.00099 ++++++++++++to 2.00099
Heightened Def Con from 2.00099 ++++++++++++to 2.00099
Heightened Def Con from 2.00099 ++++++++++++to 2.00099
Heightened Def Con from 2.00099 ++++++++++++to 2.00099
Heightened Def Con from 2.00099 ++++++++++++to 2.00099
Heightened Def Con from 2.00099 ++++++++++++to 2.00099
Heightened Def Con from 2.00099 ++++++++++++to 2.00099
Heightened Def Con from 2.00099 +++++++++++++to 2.00099
Heightened Def Con from 2.00099 +++++++++++++to 2.00099
Heightened Def Con from 2.00099 +++++++++++++to 2.00099
Heightened Def Con from 2.00099 +++++++++++++to 2.00099
Heightened Def Con from 2.00099 +++++++++++++to 2.00099
Heightened Def Con from 2.00099 +++++++++++++to 2.00099
Heightened Def Con from 2.00099 +++++++++++++to 2.00099
Heightened Def Con from 2.00099 +++++++++++++to 2.00099
Heightened Def Con from 2.00099 +++++++++++++to 2.00099
Heightened Def Con from 2.00099 +++++++++++++to 2.00099
Heightened Def Con from 2.00099 +++++++++++++to 2.00099
Heightened Def Con from 2.00099 +++++++++++++to 2.00099
Heightened Def Con from 2.00099 +++++++++++++to 2.00099
Heightened Def Con from 2.00099 +++++++++++++to 2.00099
Heightened Def Con from 2.00099 +++++++++++++to 2.00099
Heightened Def Con from 2.00099 +++++++++++++to 2.00099
Heightened Def Con from 2.00099 ++++++++++++++to 2.00099
Heightened Def Con from 2.00099 to 2.00099
Heightened Def Con from 2.00099 +to 2.00099
Heightened Def Con from 2.00099 ++to 2.00099
Heightened Def Con from 2.00099 ++to 2.00099
Heightened Def Con from 2.00099 ++to 2.00099
Heightened Def Con from 2.00099 +++to 2.00099
Heightened Def Con from 2.00099 +++to 2.00099
Heightened Def Con from 2.00099 +++to 2.00099
Heightened Def Con from 2.00099 +++to 2.00099
Heightened Def Con from 2.00099 +++to 2.00099
Heightened Def Con from 2.00099 +++to 2.00099
Heightened Def Con from 2.00099 ++++to 2.00099
Heightened Def Con from 2.00099 ++++to 2.00099
Heightened Def Con from 2.00099 ++++to 2.00099
Heightened Def Con from 2.00099 ++++to 2.00099
Heightened Def Con from 2.00099 +++++to 2.00099
Heightened Def Con from 2.00099 +++++to 2.00099
Heightened Def Con from 2.00099 +++++to 2.00099
Heightened Def Con from 2.00099 +++++to 2.00099
Heightened Def Con from 2.00099 +++++to 2.00099
Heightened Def Con from 2.00099 +++++to 2.00099
Heightened Def Con from 2.00099 +++++to 2.00099
Heightened Def Con from 2.00099 +++++to 2.00099
Heightened Def Con from 2.00099 ++++++to 2.00099
Heightened Def Con from 2.00099 ++++++to 2.00099
Heightened Def Con from 2.00099 ++++++to 2.00099
Heightened Def Con from 2.00099 ++++++to 2.00099
Heightened Def Con from 2.00099 ++++++to 2.00099
Heightened Def Con from 2.00099 ++++++to 2.00099
Heightened Def Con from 2.00099 ++++++to 2.00099
Heightened Def Con from 2.00099 +++++++to 2.00099
Heightened Def Con from 2.00099 +++++++to 2.00099
Heightened Def Con from 2.00099 +++++++to 2.00099
Heightened Def Con from 2.00099 ++++++++to 2.00099
Heightened Def Con from 2.00099 ++++++++to 2.00099
Heightened Def Con from 2.00099 ++++++++to 2.00099
Heightened Def Con from 2.00099 ++++++++to 2.00099
Heightened Def Con from 2.00099 ++++++++to 2.00099
Heightened Def Con from 2.00099 ++++++++to 2.00099
Heightened Def Con from 2.00099 ++++++++to 2.00099
Heightened Def Con from 2.00099 ++++++++to 2.00099
Heightened Def Con from 2.00099 +++++++++to 2.00099
Heightened Def Con from 2.00099 +++++++++to 2.00099
Heightened Def Con from 2.00099 +++++++++to 2.00099
Heightened Def Con from 2.00099 +++++++++to 2.00099
Heightened Def Con from 2.00099 +++++++++to 2.00099
Heightened Def Con from 2.00099 +++++++++to 2.00099
Heightened Def Con from 2.00099 +++++++++to 2.00099
Heightened Def Con from 2.00099 +++++++++to 2.00099
Heightened Def Con from 2.00099 +++++++++to 2.00099
Heightened Def Con from 2.00099 ++++++++++to 2.00099
Heightened Def Con from 2.00099 ++++++++++to 2.00099
Heightened Def Con from 2.00099 ++++++++++to 2.00099
Heightened Def Con from 2.00099 ++++++++++to 2.00099
Heightened Def Con from 2.00099 ++++++++++to 2.00099
Heightened Def Con from 2.00099 ++++++++++to 2.00099
Heightened Def Con from 2.00099 ++++++++++to 2.00099
Heightened Def Con from 2.00099 +++++++++++to 2.00099
Heightened Def Con from 2.00099 +++++++++++to 2.00099
Heightened Def Con from 2.00099 +++++++++++to 2.00099
Heightened Def Con from 2.00099 +++++++++++to 2.00099
Heightened Def Con from 2.00099 +++++++++++to 2.00099
Heightened Def Con from 2.00099 +++++++++++to 2.00099
Heightened Def Con from 2.00099 +++++++++++to 2.00099
Heightened Def Con from 2.00099 +++++++++++to 2.00099
Heightened Def Con from 2.00099 +++++++++++to 2.00099
Heightened Def Con from 2.00099 +++++++++++to 2.00099
Heightened Def Con from 2.00099 +++++++++++to 2.00099
Heightened Def Con from 2.00099 +++++++++++to 2.00099
Heightened Def Con from 2.00099 +++++++++++to 2.00099
Heightened Def Con from 2.00099 +++++++++++to 2.00099
Heightened Def Con from 2.00099 ++++++++++++to 2.00099
Heightened Def Con from 2.00099 ++++++++++++to 2.00099
Heightened Def Con from 2.00099 ++++++++++++to 2.00099
Heightened Def Con from 2.00099 ++++++++++++to 2.00099
Heightened Def Con from 2.00099 ++++++++++++to 2.00099
Heightened Def Con from 2.00099 ++++++++++++to 2.00099
Heightened Def Con from 2.00099 ++++++++++++to 2.00099
Heightened Def Con from 2.00099 ++++++++++++to 2.00099
Heightened Def Con from 2.00099 ++++++++++++to 2.00099
Heightened Def Con from 2.00099 ++++++++++++to 2.00099
Heightened Def Con from 2.00099 ++++++++++++to 2.00099
Heightened Def Con from 2.00099 ++++++++++++to 2.00099
Heightened Def Con from 2.00099 ++++++++++++to 2.00099
Heightened Def Con from 2.00099 ++++++++++++to 2.00099
Heightened Def Con from 2.00099 ++++++++++++to 2.00099
Heightened Def Con from 2.00099 ++++++++++++to 2.00099
Heightened Def Con from 2.00099 ++++++++++++to 2.00099
Heightened Def Con from 2.00099 ++++++++++++to 2.00099
Heightened Def Con from 2.00099 ++++++++++++to 2.00099
Heightened Def Con from 2.00099 +++++++++++++to 2.00099
Heightened Def Con from 2.00099 +++++++++++++to 2.00099
Heightened Def Con from 2.00099 +++++++++++++to 2.00099
Heightened Def Con from 2.00099 +++++++++++++to 2.00099
Heightened Def Con from 2.00099 +++++++++++++to 2.00099
Heightened Def Con from 2.00099 +++++++++++++to 2.00099
Heightened Def Con from 2.00099 +++++++++++++to 2.00099
Heightened Def Con from 2.00099 +++++++++++++to 2.00099
Heightened Def Con from 2.00099 +++++++++++++to 2.00099
Heightened Def Con from 2.00099 +++++++++++++to 2.00099
Heightened Def Con from 2.00099 +++++++++++++to 2.00099
Heightened Def Con from 2.00099 +++++++++++++to 2.00099
Heightened Def Con from 2.00099 +++++++++++++to 2.00099
Heightened Def Con from 2.00099 +++++++++++++to 2.00099
Heightened Def Con from 2.00099 +++++++++++++to 2.00099
Heightened Def Con from 2.00099 +++++++++++++to 2.00099
Heightened Def Con from 2.00099 +++++++++++++to 2.00099
Heightened Def Con from 2.00099 +++++++++++++to 2.00099
Heightened Def Con from 2.00099 +++++++++++++to 2.00099
Heightened Def Con from 2.00099 ++++++++++++++to 2.00099
Heightened Def Con from 2.00099 to 2.00099
Heightened Def Con from 2.00099 +to 2.00099
Heightened Def Con from 2.00099 +to 2.00099
Heightened Def Con from 2.00099 ++to 2.00099
Heightened Def Con from 2.00099 ++to 2.00099
Heightened Def Con from 2.00099 ++to 2.00099
Heightened Def Con from 2.00099 +++to 2.00099
Heightened Def Con from 2.00099 +++to 2.00099
Heightened Def Con from 2.00099 +++to 2.00099
Heightened Def Con from 2.00099 +++to 2.00099
Heightened Def Con from 2.00099 +++to 2.00099
Heightened Def Con from 2.00099 +++to 2.00099
Heightened Def Con from 2.00099 ++++to 2.00099
Heightened Def Con from 2.00099 ++++to 2.00099
Heightened Def Con from 2.00099 ++++to 2.00099
Heightened Def Con from 2.00099 ++++to 2.00099
Heightened Def Con from 2.00099 +++++to 2.00099
Heightened Def Con from 2.00099 +++++to 2.00099
Heightened Def Con from 2.00099 +++++to 2.00099
Heightened Def Con from 2.00099 +++++to 2.00099
Heightened Def Con from 2.00099 +++++to 2.00099
Heightened Def Con from 2.00099 +++++to 2.00099
Heightened Def Con from 2.00099 +++++to 2.00099
Heightened Def Con from 2.00099 ++++++to 2.00099
Heightened Def Con from 2.00099 ++++++to 2.00099
Heightened Def Con from 2.00099 ++++++to 2.00099
Heightened Def Con from 2.00099 ++++++to 2.00099
Heightened Def Con from 2.00099 ++++++to 2.00099
Heightened Def Con from 2.00099 ++++++to 2.00099
Heightened Def Con from 2.00099 +++++++to 2.00099
Heightened Def Con from 2.00099 +++++++to 2.00099
Heightened Def Con from 2.00099 +++++++to 2.00099
Heightened Def Con from 2.00099 +++++++to 2.00099
Heightened Def Con from 2.00099 +++++++to 2.00099
Heightened Def Con from 2.00099 +++++++to 2.00099
Heightened Def Con from 2.00099 +++++++to 2.00099
Heightened Def Con from 2.00099 +++++++to 2.00099
Heightened Def Con from 2.00099 ++++++++to 2.00099
Heightened Def Con from 2.00099 ++++++++to 2.00099
Heightened Def Con from 2.00099 ++++++++to 2.00099
Heightened Def Con from 2.00099 ++++++++to 2.00099
Heightened Def Con from 2.00099 ++++++++to 2.00099
Heightened Def Con from 2.00099 ++++++++to 2.00099
Heightened Def Con from 2.00099 ++++++++to 2.00099
Heightened Def Con from 2.00099 ++++++++to 2.00099
Heightened Def Con from 2.00099 ++++++++to 2.00099
Heightened Def Con from 2.00099 ++++++++to 2.00099
Heightened Def Con from 2.00099 +++++++++to 2.00099
Heightened Def Con from 2.00099 +++++++++to 2.00099
Heightened Def Con from 2.00099 +++++++++to 2.00099
Heightened Def Con from 2.00099 +++++++++to 2.00099
Heightened Def Con from 2.00099 +++++++++to 2.00099
Heightened Def Con from 2.00099 +++++++++to 2.00099
Heightened Def Con from 2.00099 ++++++++++to 2.00099
Heightened Def Con from 2.00099 ++++++++++to 2.00099
Heightened Def Con from 2.00099 ++++++++++to 2.00099
Heightened Def Con from 2.00099 ++++++++++to 2.00099
Heightened Def Con from 2.00099 +++++++++++to 2.00099
Heightened Def Con from 2.00099 +++++++++++to 2.00099
Heightened Def Con from 2.00099 +++++++++++to 2.00099
Heightened Def Con from 2.00099 +++++++++++to 2.00099
Heightened Def Con from 2.00099 +++++++++++to 2.00099
Heightened Def Con from 2.00099 +++++++++++to 2.00099
Heightened Def Con from 2.00099 +++++++++++to 2.00099
Heightened Def Con from 2.00099 +++++++++++to 2.00099
Heightened Def Con from 2.00099 +++++++++++to 2.00099
Heightened Def Con from 2.00099 +++++++++++to 2.00099
Heightened Def Con from 2.00099 +++++++++++to 2.00099
Heightened Def Con from 2.00099 +++++++++++to 2.00099
Heightened Def Con from 2.00099 ++++++++++++to 2.00099
Heightened Def Con from 2.00099 ++++++++++++to 2.00099
Heightened Def Con from 2.00099 ++++++++++++to 2.00099
Heightened Def Con from 2.00099 ++++++++++++to 2.00099
Heightened Def Con from 2.00099 ++++++++++++to 2.00099
Heightened Def Con from 2.00099 ++++++++++++to 2.00099
Heightened Def Con from 2.00099 ++++++++++++to 2.00099
Heightened Def Con from 2.00099 ++++++++++++to 2.00099
Heightened Def Con from 2.00099 ++++++++++++to 2.00099
Heightened Def Con from 2.00099 ++++++++++++to 2.00099
Heightened Def Con from 2.00099 ++++++++++++to 2.00099
Heightened Def Con from 2.00099 ++++++++++++to 2.00099
Heightened Def Con from 2.00099 ++++++++++++to 2.00099
Heightened Def Con from 2.00099 ++++++++++++to 2.00099
Heightened Def Con from 2.00099 ++++++++++++to 2.00099
Heightened Def Con from 2.00099 ++++++++++++to 2.00099
Heightened Def Con from 2.00099 ++++++++++++to 2.00099
Heightened Def Con from 2.00099 ++++++++++++to 2.00099
Heightened Def Con from 2.00099 +++++++++++++to 2.00099
Heightened Def Con from 2.00099 +++++++++++++to 2.00099
Heightened Def Con from 2.00099 +++++++++++++to 2.00099
Heightened Def Con from 2.00099 +++++++++++++to 2.00099
Heightened Def Con from 2.00099 +++++++++++++to 2.00099
Heightened Def Con from 2.00099 +++++++++++++to 2.00099
Heightened Def Con from 2.00099 +++++++++++++to 2.00099
Heightened Def Con from 2.00099 +++++++++++++to 2.00099
Heightened Def Con from 2.00099 +++++++++++++to 2.00099
Heightened Def Con from 2.00099 +++++++++++++to 2.00099
Heightened Def Con from 2.00099 +++++++++++++to 2.00099
Heightened Def Con from 2.00099 +++++++++++++to 2.00099
Heightened Def Con from 2.00099 +++++++++++++to 2.00099
Heightened Def Con from 2.00099 +++++++++++++to 2.00099
Heightened Def Con from 2.00099 +++++++++++++to 2.00099
Heightened Def Con from 2.00099 +++++++++++++to 2.00099
Heightened Def Con from 2.00099 +++++++++++++to 2.00099
Heightened Def Con from 2.00099 +++++++++++++to 2.00099
Heightened Def Con from 2.00099 +++++++++++++to 2.00099
Heightened Def Con from 2.00099 +++++++++++++to 2.00099
Heightened Def Con from 2.00099 +++++++++++++to 2.00099
Heightened Def Con from 2.00099 +++++++++++++to 2.00099
Heightened Def Con from 2.00099 ++++++++++++++to 2.00099
Heightened Def Con from 2.00099 +to 2.00099
Heightened Def Con from 2.00099 ++to 2.00099
Heightened Def Con from 2.00099 ++to 2.00099
Heightened Def Con from 2.00099 +++to 2.00099
Heightened Def Con from 2.00099 +++to 2.00099
Heightened Def Con from 2.00099 +++to 2.00099
Heightened Def Con from 2.00099 +++to 2.00099
Heightened Def Con from 2.00099 ++++to 2.00099
Heightened Def Con from 2.00099 ++++to 2.00099
Heightened Def Con from 2.00099 ++++to 2.00099
Heightened Def Con from 2.00099 ++++to 2.00099
Heightened Def Con from 2.00099 ++++to 2.00099
Heightened Def Con from 2.00099 ++++to 2.00099
Heightened Def Con from 2.00099 ++++to 2.00099
Heightened Def Con from 2.00099 +++++to 2.00099
Heightened Def Con from 2.00099 +++++to 2.00099
Heightened Def Con from 2.00099 +++++to 2.00099
Heightened Def Con from 2.00099 +++++to 2.00099
Heightened Def Con from 2.00099 +++++to 2.00099
Heightened Def Con from 2.00099 +++++to 2.00099
Heightened Def Con from 2.00099 ++++++to 2.00099
Heightened Def Con from 2.00099 ++++++to 2.00099
Heightened Def Con from 2.00099 ++++++to 2.00099
Heightened Def Con from 2.00099 ++++++to 2.00099
Heightened Def Con from 2.00099 ++++++to 2.00099
Heightened Def Con from 2.00099 +++++++to 2.00099
Heightened Def Con from 2.00099 +++++++to 2.00099
Heightened Def Con from 2.00099 +++++++to 2.00099
Heightened Def Con from 2.00099 +++++++to 2.00099
Heightened Def Con from 2.00099 +++++++to 2.00099
Heightened Def Con from 2.00099 +++++++to 2.00099
Heightened Def Con from 2.00099 +++++++to 2.00099
Heightened Def Con from 2.00099 +++++++to 2.00099
Heightened Def Con from 2.00099 +++++++to 2.00099
Heightened Def Con from 2.00099 +++++++to 2.00099
Heightened Def Con from 2.00099 ++++++++to 2.00099
Heightened Def Con from 2.00099 ++++++++to 2.00099
Heightened Def Con from 2.00099 ++++++++to 2.00099
Heightened Def Con from 2.00099 ++++++++to 2.00099
Heightened Def Con from 2.00099 ++++++++to 2.00099
Heightened Def Con from 2.00099 ++++++++to 2.00099
Heightened Def Con from 2.00099 ++++++++to 2.00099
Heightened Def Con from 2.00099 ++++++++to 2.00099
Heightened Def Con from 2.00099 ++++++++to 2.00099
Heightened Def Con from 2.00099 ++++++++to 2.00099
Heightened Def Con from 2.00099 ++++++++to 2.00099
Heightened Def Con from 2.00099 ++++++++to 2.00099
Heightened Def Con from 2.00099 ++++++++to 2.00099
Heightened Def Con from 2.00099 +++++++++to 2.00099
Heightened Def Con from 2.00099 +++++++++to 2.00099
Heightened Def Con from 2.00099 +++++++++to 2.00099
Heightened Def Con from 2.00099 +++++++++to 2.00099
Heightened Def Con from 2.00099 +++++++++to 2.00099
Heightened Def Con from 2.00099 +++++++++to 2.00099
Heightened Def Con from 2.00099 +++++++++to 2.00099
Heightened Def Con from 2.00099 ++++++++++to 2.00099
Heightened Def Con from 2.00099 ++++++++++to 2.00099
Heightened Def Con from 2.00099 ++++++++++to 2.00099
Heightened Def Con from 2.00099 ++++++++++to 2.00099
Heightened Def Con from 2.00099 ++++++++++to 2.00099
Heightened Def Con from 2.00099 ++++++++++to 2.00099
Heightened Def Con from 2.00099 ++++++++++to 2.00099
Heightened Def Con from 2.00099 ++++++++++to 2.00099
Heightened Def Con from 2.00099 ++++++++++to 2.00099
Heightened Def Con from 2.00099 +++++++++++to 2.00099
Heightened Def Con from 2.00099 +++++++++++to 2.00099
Heightened Def Con from 2.00099 +++++++++++to 2.00099
Heightened Def Con from 2.00099 +++++++++++to 2.00099
Heightened Def Con from 2.00099 +++++++++++to 2.00099
Heightened Def Con from 2.00099 +++++++++++to 2.00099
Heightened Def Con from 2.00099 +++++++++++to 2.00099
Heightened Def Con from 2.00099 +++++++++++to 2.00099
Heightened Def Con from 2.00099 +++++++++++to 2.00099
Heightened Def Con from 2.00099 +++++++++++to 2.00099
Heightened Def Con from 2.00099 +++++++++++to 2.00099
Heightened Def Con from 2.00099 +++++++++++to 2.00099
Heightened Def Con from 2.00099 ++++++++++++to 2.00099
Heightened Def Con from 2.00099 ++++++++++++to 2.00099
Heightened Def Con from 2.00099 ++++++++++++to 2.00099
Heightened Def Con from 2.00099 ++++++++++++to 2.00099
Heightened Def Con from 2.00099 ++++++++++++to 2.00099
Heightened Def Con from 2.00099 ++++++++++++to 2.00099
Heightened Def Con from 2.00099 ++++++++++++to 2.00099
Heightened Def Con from 2.00099 ++++++++++++to 2.00099
Heightened Def Con from 2.00099 ++++++++++++to 2.00099
Heightened Def Con from 2.00099 ++++++++++++to 2.00099
Heightened Def Con from 2.00099 ++++++++++++to 2.00099
Heightened Def Con from 2.00099 ++++++++++++to 2.00099
Heightened Def Con from 2.00099 ++++++++++++to 2.00099
Heightened Def Con from 2.00099 ++++++++++++to 2.00099
Heightened Def Con from 2.00099 ++++++++++++to 2.00099
Heightened Def Con from 2.00099 ++++++++++++to 2.00099
Heightened Def Con from 2.00099 ++++++++++++to 2.00099
Heightened Def Con from 2.00099 ++++++++++++to 2.00099
Heightened Def Con from 2.00099 +++++++++++++to 2.00099
Heightened Def Con from 2.00099 +++++++++++++to 2.00099
Heightened Def Con from 2.00099 +++++++++++++to 2.00099
Heightened Def Con from 2.00099 +++++++++++++to 2.00099
Heightened Def Con from 2.00099 +++++++++++++to 2.00099
Heightened Def Con from 2.00099 +++++++++++++to 2.00099
Heightened Def Con from 2.00099 +++++++++++++to 2.00099
Heightened Def Con from 2.00099 +++++++++++++to 2.00099
Heightened Def Con from 2.00099 +++++++++++++to 2.00099
Heightened Def Con from 2.00099 +++++++++++++to 2.00099
Heightened Def Con from 2.00099 +++++++++++++to 2.00099
Heightened Def Con from 2.00099 +++++++++++++to 2.00099
Heightened Def Con from 2.00099 +++++++++++++to 2.00099
Heightened Def Con from 2.00099 +++++++++++++to 2.00099
Heightened Def Con from 2.00099 +++++++++++++to 2.00099
Heightened Def Con from 2.00099 +++++++++++++to 2.00099
Heightened Def Con from 2.00099 +++++++++++++to 2.00099
Heightened Def Con from 2.00099 +++++++++++++to 2.00099
Heightened Def Con from 2.00099 +++++++++++++to 2.00099
Heightened Def Con from 2.00099 +++++++++++++to 2.00099
Heightened Def Con from 2.00099 ++++++++++++++to 2.00099
Heightened Def Con from 2.00099 ++++++++++++to 2.00099
Heightened Def Con from 2.00099 ++++++++++++to 2.00099
Heightened Def Con from 2.00099 ++++++++++++to 2.00099
Heightened Def Con from 2.00099 ++++++++++++to 2.00099
Heightened Def Con from 2.00099 ++++++++++++to 2.00099
Heightened Def Con from 2.00099 ++++++++++++to 2.00099
Heightened Def Con from 2.00099 ++++++++++++to 2.00099
Heightened Def Con from 2.00099 ++++++++++++to 2.00099
Heightened Def Con from 2.00099 ++++++++++++to 2.00099
Heightened Def Con from 2.00099 ++++++++++++to 2.00099
Heightened Def Con from 2.00099 ++++++++++++to 2.00099
Heightened Def Con from 2.00099 ++++++++++++to 2.00099
Heightened Def Con from 2.00099 ++++++++++++to 2.00099
Heightened Def Con from 2.00099 ++++++++++++to 2.00099
Heightened Def Con from 2.00099 ++++++++++++to 2.00099
Heightened Def Con from 2.00099 ++++++++++++to 2.00099
Heightened Def Con from 2.00099 ++++++++++++to 2.00099
Heightened Def Con from 2.00099 ++++++++++++to 2.00099
Heightened Def Con from 2.00099 +++++++++++++to 2.00099
Heightened Def Con from 2.00099 +++++++++++++to 2.00099
Heightened Def Con from 2.00099 +++++++++++++to 2.00099
Heightened Def Con from 2.00099 +++++++++++++to 2.00099
Heightened Def Con from 2.00099 +++++++++++++to 2.00099
Heightened Def Con from 2.00099 +++++++++++++to 2.00099
Heightened Def Con from 2.00099 +++++++++++++to 2.00099
Heightened Def Con from 2.00099 +++++++++++++to 2.00099
Heightened Def Con from 2.00099 +++++++++++++to 2.00099
Heightened Def Con from 2.00099 +++++++++++++to 2.00099
Heightened Def Con from 2.00099 +++++++++++++to 2.00099
Heightened Def Con from 2.00099 +++++++++++++to 2.00099
Heightened Def Con from 2.00099 +++++++++++++to 2.00099
Heightened Def Con from 2.00099 +++++++++++++to 2.00099
Heightened Def Con from 2.00099 +++++++++++++to 2.00099
Heightened Def Con from 2.00099 ++++++++++++++to 2.00099
Heightened Def Con from 2.00099 +++++++++++++to 2.00099
Heightened Def Con from 2.00099 +++++++++++++to 2.00099
Heightened Def Con from 2.00099 +++++++++++++to 2.00099
Heightened Def Con from 2.00099 +++++++++++++to 2.00099
Heightened Def Con from 2.00099 +++++++++++++to 2.00099
Heightened Def Con from 2.00099 +++++++++++++to 2.00099
Heightened Def Con from 2.00099 +++++++++++++to 2.00099
Heightened Def Con from 2.00099 +++++++++++++to 2.00099
Heightened Def Con from 2.00099 +++++++++++++to 2.00099
Heightened Def Con from 2.00099 +++++++++++++to 2.00099
Heightened Def Con from 2.00099 +++++++++++++to 2.00099
Heightened Def Con from 2.00099 +++++++++++++to 2.00099
Heightened Def Con from 2.00099 +++++++++++++to 2.00099
Heightened Def Con from 2.00099 +++++++++++++to 2.00099
Heightened Def Con from 2.00099 +++++++++++++to 2.00099
Heightened Def Con from 2.00099 +++++++++++++to 2.00099
Heightened Def Con from 2.00099 +++++++++++++to 2.00099
Heightened Def Con from 2.00099 +++++++++++++to 2.00099
Heightened Def Con from 2.00099 ++++++++++++++to 2.00099
Heightened Def Con from 2.00099 +++++++++++++to 2.00099
Heightened Def Con from 2.00099 +++++++++++++to 2.00099
Heightened Def Con from 2.00099 +++++++++++++to 2.00099
Heightened Def Con from 2.00099 +++++++++++++to 2.00099
Heightened Def Con from 2.00099 +++++++++++++to 2.00099
Heightened Def Con from 2.00099 +++++++++++++to 2.00099
Heightened Def Con from 2.00099 +++++++++++++to 2.00099
Heightened Def Con from 2.00099 +++++++++++++to 2.00099
Heightened Def Con from 2.00099 +++++++++++++to 2.00099
Heightened Def Con from 2.00099 +++++++++++++to 2.00099
Heightened Def Con from 2.00099 +++++++++++++to 2.00099
Heightened Def Con from 2.00099 +++++++++++++to 2.00099
Heightened Def Con from 2.00099 +++++++++++++to 2.00099
Heightened Def Con from 2.00099 +++++++++++++to 2.00099
Heightened Def Con from 2.00099 ++++++++++++++to 2.00099
Heightened Def Con from 2.00099 ++++++++++++++to 2.00099
Heightened Def Con from 2.00099 ++++++++++++++to 2.00099
Heightened Def Con from 2.00099 ++++++++++++++to 2.00099
Heightened Def Con from 2.00099 ++++++++++++++to 2.00099
Heightened Def Con from 2.00099 ++++++++++++++to 2.00099
Heightened Def Con from 2.00099 ++++++++++++++to 2.00099
Heightened Def Con from 2.00099 ++++++++++++++to 2.00099
Heightened Def Con from 2.00099 ++++++++++++++to 2.00099
Heightened Def Con from 2.00099 ++++++++++++++to 2.00099
Heightened Def Con from 2.00099 ++++++++++++++to 2.00099
Heightened Def Con from 2.00099 ++++++++++++++to 2.00099
Heightened Def Con from 2.00099 ++++++++++++++to 2.00099
Heightened Def Con from 2.00099 ++++++++++++++to 2.00099
Heightened Def Con from 2.00099 ++++++++++++++to 2.00099
Heightened Def Con from 2.00099 ++++++++++++++to 2.00099
Heightened Def Con from 2.00099 ++++++++++++++to 2.00099
Heightened Def Con from 2.00099 ++++++++++++++to 2.00099
Heightened Def Con from 2.00099 ++++++++++++++to 2.00099
Heightened Def Con from 2.00099 ++++++++++++++to 2.00099
Heightened Def Con from 2.00099 ++++++++++++++to 2.00099
Heightened Def Con from 2.00099 ++++++++++++++to 2.00099
Heightened Def Con from 2.00099 +++++++++++++++to 2.00099
Heightened Def Con from 2.00099 to 2.00099
Heightened Def Con from 2.00099 +to 2.00099
Heightened Def Con from 2.00099 ++to 2.00099
Heightened Def Con from 2.00099 ++to 2.00099
Heightened Def Con from 2.00099 +++to 2.00099
Heightened Def Con from 2.00099 +++to 2.00099
Heightened Def Con from 2.00099 +++to 2.00099
Heightened Def Con from 2.00099 +++to 2.00099
Heightened Def Con from 2.00099 ++++to 2.00099
Heightened Def Con from 2.00099 +++++to 2.00099
Heightened Def Con from 2.00099 +++++to 2.00099
Heightened Def Con from 2.00099 ++++++to 2.00099
Heightened Def Con from 2.00099 ++++++to 2.00099
Heightened Def Con from 2.00099 ++++++to 2.00099
Heightened Def Con from 2.00099 ++++++to 2.00099
Heightened Def Con from 2.00099 ++++++to 2.00099
Heightened Def Con from 2.00099 ++++++to 2.00099
Heightened Def Con from 2.00099 ++++++to 2.00099
Heightened Def Con from 2.00099 ++++++to 2.00099
Heightened Def Con from 2.00099 ++++++to 2.00099
Heightened Def Con from 2.00099 ++++++to 2.00099
Heightened Def Con from 2.00099 +++++++to 2.00099
Heightened Def Con from 2.00099 +++++++to 2.00099
Heightened Def Con from 2.00099 +++++++to 2.00099
Heightened Def Con from 2.00099 +++++++to 2.00099
Heightened Def Con from 2.00099 +++++++to 2.00099
Heightened Def Con from 2.00099 +++++++to 2.00099
Heightened Def Con from 2.00099 +++++++to 2.00099
Heightened Def Con from 2.00099 +++++++to 2.00099
Heightened Def Con from 2.00099 +++++++to 2.00099
Heightened Def Con from 2.00099 +++++++to 2.00099
Heightened Def Con from 2.00099 ++++++++to 2.00099
Heightened Def Con from 2.00099 ++++++++to 2.00099
Heightened Def Con from 2.00099 ++++++++to 2.00099
Heightened Def Con from 2.00099 ++++++++to 2.00099
Heightened Def Con from 2.00099 ++++++++to 2.00099
Heightened Def Con from 2.00099 ++++++++to 2.00099
Heightened Def Con from 2.00099 ++++++++to 2.00099
Heightened Def Con from 2.00099 ++++++++to 2.00099
Heightened Def Con from 2.00099 ++++++++to 2.00099
Heightened Def Con from 2.00099 ++++++++to 2.00099
Heightened Def Con from 2.00099 ++++++++to 2.00099
Heightened Def Con from 2.00099 ++++++++to 2.00099
Heightened Def Con from 2.00099 +++++++++to 2.00099
Heightened Def Con from 2.00099 +++++++++to 2.00099
Heightened Def Con from 2.00099 +++++++++to 2.00099
Heightened Def Con from 2.00099 +++++++++to 2.00099
Heightened Def Con from 2.00099 +++++++++to 2.00099
Heightened Def Con from 2.00099 ++++++++++to 2.00099
Heightened Def Con from 2.00099 ++++++++++to 2.00099
Heightened Def Con from 2.00099 ++++++++++to 2.00099
Heightened Def Con from 2.00099 ++++++++++to 2.00099
Heightened Def Con from 2.00099 ++++++++++to 2.00099
Heightened Def Con from 2.00099 ++++++++++to 2.00099
Heightened Def Con from 2.00099 ++++++++++to 2.00099
Heightened Def Con from 2.00099 ++++++++++to 2.00099
Heightened Def Con from 2.00099 ++++++++++to 2.00099
Heightened Def Con from 2.00099 ++++++++++to 2.00099
Heightened Def Con from 2.00099 ++++++++++to 2.00099
Heightened Def Con from 2.00099 ++++++++++to 2.00099
Heightened Def Con from 2.00099 ++++++++++to 2.00099
Heightened Def Con from 2.00099 ++++++++++to 2.00099
Heightened Def Con from 2.00099 +++++++++++to 2.00099
Heightened Def Con from 2.00099 +++++++++++to 2.00099
Heightened Def Con from 2.00099 +++++++++++to 2.00099
Heightened Def Con from 2.00099 +++++++++++to 2.00099
Heightened Def Con from 2.00099 +++++++++++to 2.00099
Heightened Def Con from 2.00099 +++++++++++to 2.00099
Heightened Def Con from 2.00099 +++++++++++to 2.00099
Heightened Def Con from 2.00099 +++++++++++to 2.00099
Heightened Def Con from 2.00099 +++++++++++to 2.00099
Heightened Def Con from 2.00099 +++++++++++to 2.00099
Heightened Def Con from 2.00099 +++++++++++to 2.00099
Heightened Def Con from 2.00099 ++++++++++++to 2.00099
Heightened Def Con from 2.00099 ++++++++++++to 2.00099
Heightened Def Con from 2.00099 ++++++++++++to 2.00099
Heightened Def Con from 2.00099 ++++++++++++to 2.00099
Heightened Def Con from 2.00099 ++++++++++++to 2.00099
Heightened Def Con from 2.00099 ++++++++++++to 2.00099
Heightened Def Con from 2.00099 ++++++++++++to 2.00099
Heightened Def Con from 2.00099 ++++++++++++to 2.00099
Heightened Def Con from 2.00099 ++++++++++++to 2.00099
Heightened Def Con from 2.00099 ++++++++++++to 2.00099
Heightened Def Con from 2.00099 +++++++++++++to 2.00099
Heightened Def Con from 2.00099 +++++++++++++to 2.00099
Heightened Def Con from 2.00099 +++++++++++++to 2.00099
Heightened Def Con from 2.00099 +++++++++++++to 2.00099
Heightened Def Con from 2.00099 +++++++++++++to 2.00099
Heightened Def Con from 2.00099 +++++++++++++to 2.00099
Heightened Def Con from 2.00099 +++++++++++++to 2.00099
Heightened Def Con from 2.00099 +++++++++++++to 2.00099
Heightened Def Con from 2.00099 +++++++++++++to 2.00099
Heightened Def Con from 2.00099 +++++++++++++to 2.00099
Heightened Def Con from 2.00099 +++++++++++++to 2.00099
Heightened Def Con from 2.00099 +++++++++++++to 2.00099
Heightened Def Con from 2.00099 +++++++++++++to 2.00099
Heightened Def Con from 2.00099 +++++++++++++to 2.00099
Heightened Def Con from 2.00099 +++++++++++++to 2.00099
Heightened Def Con from 2.00099 +++++++++++++to 2.00099
Heightened Def Con from 2.00099 +++++++++++++to 2.00099
Heightened Def Con from 2.00099 +++++++++++++to 2.00099
Heightened Def Con from 2.00099 +++++++++++++to 2.00099
Heightened Def Con from 2.00099 +++++++++++++to 2.00099
Heightened Def Con from 2.00099 +++++++++++++to 2.00099
Heightened Def Con from 2.00099 +++++++++++++to 2.00099
Heightened Def Con from 2.00099 +++++++++++++to 2.00099
Heightened Def Con from 2.00099 ++++++++++++++to 2.00099
Heightened Def Con from 2.00099 ++++++++++++++to 2.00099
Heightened Def Con from 2.00099 ++++++++++++++to 2.00099
Heightened Def Con from 2.00099 ++++++++++++++to 2.00099
Heightened Def Con from 2.00099 ++++++++++++++to 2.00099
Heightened Def Con from 2.00099 ++++++++++++++to 2.00099
Heightened Def Con from 2.00099 ++++++++++++++to 2.00099
Heightened Def Con from 2.00099 ++++++++++++++to 2.00099
Heightened Def Con from 2.00099 ++++++++++++++to 2.00099
Heightened Def Con from 2.00099 ++++++++++++++to 2.00099
Heightened Def Con from 2.00099 ++++++++++++++to 2.00099
Heightened Def Con from 2.00099 ++++++++++++++to 2.00099
Heightened Def Con from 2.00099 ++++++++++++++to 2.00099
Heightened Def Con from 2.00099 ++++++++++++++to 2.00099
Heightened Def Con from 2.00099 ++++++++++++++to 2.00099
Heightened Def Con from 2.00099 ++++++++++++++to 2.00099
Heightened Def Con from 2.00099 ++++++++++++++to 2.00099
Heightened Def Con from 2.00099 +++++++++++++++to 2.00099
Heightened Def Con from 2.00099 to 2.00099
Heightened Def Con from 2.00099 +to 2.00099
Heightened Def Con from 2.00099 ++to 2.00099
Heightened Def Con from 2.00099 ++to 2.00099
Heightened Def Con from 2.00099 +++to 2.00099
Heightened Def Con from 2.00099 +++to 2.00099
Heightened Def Con from 2.00099 +++to 2.00099
Heightened Def Con from 2.00099 +++to 2.00099
Heightened Def Con from 2.00099 ++++to 2.00099
Heightened Def Con from 2.00099 +++++to 2.00099
Heightened Def Con from 2.00099 +++++to 2.00099
Heightened Def Con from 2.00099 +++++to 2.00099
Heightened Def Con from 2.00099 +++++to 2.00099
Heightened Def Con from 2.00099 +++++to 2.00099
Heightened Def Con from 2.00099 +++++to 2.00099
Heightened Def Con from 2.00099 +++++to 2.00099
Heightened Def Con from 2.00099 +++++to 2.00099
Heightened Def Con from 2.00099 +++++to 2.00099
Heightened Def Con from 2.00099 ++++++to 2.00099
Heightened Def Con from 2.00099 ++++++to 2.00099
Heightened Def Con from 2.00099 ++++++to 2.00099
Heightened Def Con from 2.00099 ++++++to 2.00099
Heightened Def Con from 2.00099 ++++++to 2.00099
Heightened Def Con from 2.00099 ++++++to 2.00099
Heightened Def Con from 2.00099 ++++++to 2.00099
Heightened Def Con from 2.00099 ++++++to 2.00099
Heightened Def Con from 2.00099 ++++++to 2.00099
Heightened Def Con from 2.00099 ++++++to 2.00099
Heightened Def Con from 2.00099 +++++++to 2.00099
Heightened Def Con from 2.00099 +++++++to 2.00099
Heightened Def Con from 2.00099 +++++++to 2.00099
Heightened Def Con from 2.00099 +++++++to 2.00099
Heightened Def Con from 2.00099 +++++++to 2.00099
Heightened Def Con from 2.00099 +++++++to 2.00099
Heightened Def Con from 2.00099 +++++++to 2.00099
Heightened Def Con from 2.00099 +++++++to 2.00099
Heightened Def Con from 2.00099 +++++++to 2.00099
Heightened Def Con from 2.00099 ++++++++to 2.00099
Heightened Def Con from 2.00099 ++++++++to 2.00099
Heightened Def Con from 2.00099 ++++++++to 2.00099
Heightened Def Con from 2.00099 ++++++++to 2.00099
Heightened Def Con from 2.00099 ++++++++to 2.00099
Heightened Def Con from 2.00099 ++++++++to 2.00099
Heightened Def Con from 2.00099 ++++++++to 2.00099
Heightened Def Con from 2.00099 ++++++++to 2.00099
Heightened Def Con from 2.00099 ++++++++to 2.00099
Heightened Def Con from 2.00099 ++++++++to 2.00099
Heightened Def Con from 2.00099 ++++++++to 2.00099
Heightened Def Con from 2.00099 +++++++++to 2.00099
Heightened Def Con from 2.00099 +++++++++to 2.00099
Heightened Def Con from 2.00099 +++++++++to 2.00099
Heightened Def Con from 2.00099 +++++++++to 2.00099
Heightened Def Con from 2.00099 +++++++++to 2.00099
Heightened Def Con from 2.00099 +++++++++to 2.00099
Heightened Def Con from 2.00099 +++++++++to 2.00099
Heightened Def Con from 2.00099 +++++++++to 2.00099
Heightened Def Con from 2.00099 +++++++++to 2.00099
Heightened Def Con from 2.00099 ++++++++++to 2.00099
Heightened Def Con from 2.00099 ++++++++++to 2.00099
Heightened Def Con from 2.00099 ++++++++++to 2.00099
Heightened Def Con from 2.00099 ++++++++++to 2.00099
Heightened Def Con from 2.00099 ++++++++++to 2.00099
Heightened Def Con from 2.00099 ++++++++++to 2.00099
Heightened Def Con from 2.00099 ++++++++++to 2.00099
Heightened Def Con from 2.00099 ++++++++++to 2.00099
Heightened Def Con from 2.00099 ++++++++++to 2.00099
Heightened Def Con from 2.00099 ++++++++++to 2.00099
Heightened Def Con from 2.00099 ++++++++++to 2.00099
Heightened Def Con from 2.00099 ++++++++++to 2.00099
Heightened Def Con from 2.00099 ++++++++++to 2.00099
Heightened Def Con from 2.00099 ++++++++++to 2.00099
Heightened Def Con from 2.00099 +++++++++++to 2.00099
Heightened Def Con from 2.00099 +++++++++++to 2.00099
Heightened Def Con from 2.00099 +++++++++++to 2.00099
Heightened Def Con from 2.00099 +++++++++++to 2.00099
Heightened Def Con from 2.00099 +++++++++++to 2.00099
Heightened Def Con from 2.00099 +++++++++++to 2.00099
Heightened Def Con from 2.00099 +++++++++++to 2.00099
Heightened Def Con from 2.00099 +++++++++++to 2.00099
Heightened Def Con from 2.00099 ++++++++++++to 2.00099
Heightened Def Con from 2.00099 ++++++++++++to 2.00099
Heightened Def Con from 2.00099 ++++++++++++to 2.00099
Heightened Def Con from 2.00099 ++++++++++++to 2.00099
Heightened Def Con from 2.00099 ++++++++++++to 2.00099
Heightened Def Con from 2.00099 ++++++++++++to 2.00099
Heightened Def Con from 2.00099 ++++++++++++to 2.00099
Heightened Def Con from 2.00099 ++++++++++++to 2.00099
Heightened Def Con from 2.00099 ++++++++++++to 2.00099
Heightened Def Con from 2.00099 +++++++++++++to 2.00099
Heightened Def Con from 2.00099 +++++++++++++to 2.00099
Heightened Def Con from 2.00099 +++++++++++++to 2.00099
Heightened Def Con from 2.00099 +++++++++++++to 2.00099
Heightened Def Con from 2.00099 +++++++++++++to 2.00099
Heightened Def Con from 2.00099 +++++++++++++to 2.00099
Heightened Def Con from 2.00099 +++++++++++++to 2.00099
Heightened Def Con from 2.00099 +++++++++++++to 2.00099
Heightened Def Con from 2.00099 +++++++++++++to 2.00099
Heightened Def Con from 2.00099 +++++++++++++to 2.00099
Heightened Def Con from 2.00099 +++++++++++++to 2.00099
Heightened Def Con from 2.00099 +++++++++++++to 2.00099
Heightened Def Con from 2.00099 +++++++++++++to 2.00099
Heightened Def Con from 2.00099 +++++++++++++to 2.00099
Heightened Def Con from 2.00099 +++++++++++++to 2.00099
Heightened Def Con from 2.00099 ++++++++++++++to 2.00099
Heightened Def Con from 2.00099 ++++++++++++++to 2.00099
Heightened Def Con from 2.00099 ++++++++++++++to 2.00099
Heightened Def Con from 2.00099 ++++++++++++++to 2.00099
Heightened Def Con from 2.00099 ++++++++++++++to 2.00099
Heightened Def Con from 2.00099 ++++++++++++++to 2.00099
Heightened Def Con from 2.00099 ++++++++++++++to 2.00099
Heightened Def Con from 2.00099 ++++++++++++++to 2.00099
Heightened Def Con from 2.00099 ++++++++++++++to 2.00099
Heightened Def Con from 2.00099 ++++++++++++++to 2.00099
Heightened Def Con from 2.00099 ++++++++++++++to 2.00099
Heightened Def Con from 2.00099 ++++++++++++++to 2.00099
Heightened Def Con from 2.00099 ++++++++++++++to 2.00099
Heightened Def Con from 2.00099 ++++++++++++++to 2.00099
Heightened Def Con from 2.00099 ++++++++++++++to 2.00099
Heightened Def Con from 2.00099 ++++++++++++++to 2.00099
Heightened Def Con from 2.00099 ++++++++++++++to 2.00099
Heightened Def Con from 2.00099 ++++++++++++++to 2.00099
Heightened Def Con from 2.00099 ++++++++++++++to 2.00099
Heightened Def Con from 2.00099 ++++++++++++++to 2.00099
Heightened Def Con from 2.00099 ++++++++++++++to 2.00099
Heightened Def Con from 2.00099 ++++++++++++++to 2.00099
Heightened Def Con from 2.00099 ++++++++++++++to 2.00099
Heightened Def Con from 2.00099 ++++++++++++++to 2.00099
Heightened Def Con from 2.00099 ++++++++++++++to 2.00099
Heightened Def Con from 2.00099 +++++++++++++++to 2.00099
Heightened Def Con from 2.00099 to 2.00099
Heightened Def Con from 2.00099 +to 2.00099
Heightened Def Con from 2.00099 ++to 2.00099
Heightened Def Con from 2.00099 ++to 2.00099
Heightened Def Con from 2.00099 +++to 2.00099
Heightened Def Con from 2.00099 +++to 2.00099
Heightened Def Con from 2.00099 +++to 2.00099
Heightened Def Con from 2.00099 +++to 2.00099
Heightened Def Con from 2.00099 ++++to 2.00099
Heightened Def Con from 2.00099 +++++to 2.00099
Heightened Def Con from 2.00099 +++++to 2.00099
Heightened Def Con from 2.00099 +++++to 2.00099
Heightened Def Con from 2.00099 +++++to 2.00099
Heightened Def Con from 2.00099 +++++to 2.00099
Heightened Def Con from 2.00099 +++++to 2.00099
Heightened Def Con from 2.00099 +++++to 2.00099
Heightened Def Con from 2.00099 +++++to 2.00099
Heightened Def Con from 2.00099 +++++to 2.00099
Heightened Def Con from 2.00099 ++++++to 2.00099
Heightened Def Con from 2.00099 ++++++to 2.00099
Heightened Def Con from 2.00099 ++++++to 2.00099
Heightened Def Con from 2.00099 ++++++to 2.00099
Heightened Def Con from 2.00099 ++++++to 2.00099
Heightened Def Con from 2.00099 ++++++to 2.00099
Heightened Def Con from 2.00099 ++++++to 2.00099
Heightened Def Con from 2.00099 ++++++to 2.00099
Heightened Def Con from 2.00099 ++++++to 2.00099
Heightened Def Con from 2.00099 +++++++to 2.00099
Heightened Def Con from 2.00099 +++++++to 2.00099
Heightened Def Con from 2.00099 +++++++to 2.00099
Heightened Def Con from 2.00099 +++++++to 2.00099
Heightened Def Con from 2.00099 +++++++to 2.00099
Heightened Def Con from 2.00099 +++++++to 2.00099
Heightened Def Con from 2.00099 +++++++to 2.00099
Heightened Def Con from 2.00099 +++++++to 2.00099
Heightened Def Con from 2.00099 +++++++to 2.00099
Heightened Def Con from 2.00099 ++++++++to 2.00099
Heightened Def Con from 2.00099 ++++++++to 2.00099
Heightened Def Con from 2.00099 ++++++++to 2.00099
Heightened Def Con from 2.00099 ++++++++to 2.00099
Heightened Def Con from 2.00099 ++++++++to 2.00099
Heightened Def Con from 2.00099 ++++++++to 2.00099
Heightened Def Con from 2.00099 ++++++++to 2.00099
Heightened Def Con from 2.00099 ++++++++to 2.00099
Heightened Def Con from 2.00099 ++++++++to 2.00099
Heightened Def Con from 2.00099 ++++++++to 2.00099
Heightened Def Con from 2.00099 +++++++++to 2.00099
Heightened Def Con from 2.00099 +++++++++to 2.00099
Heightened Def Con from 2.00099 +++++++++to 2.00099
Heightened Def Con from 2.00099 +++++++++to 2.00099
Heightened Def Con from 2.00099 +++++++++to 2.00099
Heightened Def Con from 2.00099 +++++++++to 2.00099
Heightened Def Con from 2.00099 +++++++++to 2.00099
Heightened Def Con from 2.00099 ++++++++++to 2.00099
Heightened Def Con from 2.00099 ++++++++++to 2.00099
Heightened Def Con from 2.00099 ++++++++++to 2.00099
Heightened Def Con from 2.00099 ++++++++++to 2.00099
Heightened Def Con from 2.00099 ++++++++++to 2.00099
Heightened Def Con from 2.00099 ++++++++++to 2.00099
Heightened Def Con from 2.00099 ++++++++++to 2.00099
Heightened Def Con from 2.00099 ++++++++++to 2.00099
Heightened Def Con from 2.00099 ++++++++++to 2.00099
Heightened Def Con from 2.00099 +++++++++++to 2.00099
Heightened Def Con from 2.00099 +++++++++++to 2.00099
Heightened Def Con from 2.00099 +++++++++++to 2.00099
Heightened Def Con from 2.00099 +++++++++++to 2.00099
Heightened Def Con from 2.00099 +++++++++++to 2.00099
Heightened Def Con from 2.00099 +++++++++++to 2.00099
Heightened Def Con from 2.00099 +++++++++++to 2.00099
Heightened Def Con from 2.00099 +++++++++++to 2.00099
Heightened Def Con from 2.00099 +++++++++++to 2.00099
Heightened Def Con from 2.00099 ++++++++++++to 2.00099
Heightened Def Con from 2.00099 ++++++++++++to 2.00099
Heightened Def Con from 2.00099 ++++++++++++to 2.00099
Heightened Def Con from 2.00099 ++++++++++++to 2.00099
Heightened Def Con from 2.00099 ++++++++++++to 2.00099
Heightened Def Con from 2.00099 ++++++++++++to 2.00099
Heightened Def Con from 2.00099 ++++++++++++to 2.00099
Heightened Def Con from 2.00099 ++++++++++++to 2.00099
Heightened Def Con from 2.00099 ++++++++++++to 2.00099
Heightened Def Con from 2.00099 ++++++++++++to 2.00099
Heightened Def Con from 2.00099 ++++++++++++to 2.00099
Heightened Def Con from 2.00099 ++++++++++++to 2.00099
Heightened Def Con from 2.00099 ++++++++++++to 2.00099
Heightened Def Con from 2.00099 ++++++++++++to 2.00099
Heightened Def Con from 2.00099 ++++++++++++to 2.00099
Heightened Def Con from 2.00099 +++++++++++++to 2.00099
Heightened Def Con from 2.00099 +++++++++++++to 2.00099
Heightened Def Con from 2.00099 +++++++++++++to 2.00099
Heightened Def Con from 2.00099 +++++++++++++to 2.00099
Heightened Def Con from 2.00099 +++++++++++++to 2.00099
Heightened Def Con from 2.00099 +++++++++++++to 2.00099
Heightened Def Con from 2.00099 +++++++++++++to 2.00099
Heightened Def Con from 2.00099 +++++++++++++to 2.00099
Heightened Def Con from 2.00099 +++++++++++++to 2.00099
Heightened Def Con from 2.00099 +++++++++++++to 2.00099
Heightened Def Con from 2.00099 +++++++++++++to 2.00099
Heightened Def Con from 2.00099 +++++++++++++to 2.00099
Heightened Def Con from 2.00099 +++++++++++++to 2.00099
Heightened Def Con from 2.00099 +++++++++++++to 2.00099
Heightened Def Con from 2.00099 ++++++++++++++to 2.00099
Heightened Def Con from 2.00099 ++++++++++++++to 2.00099
Heightened Def Con from 2.00099 ++++++++++++++to 2.00099
Heightened Def Con from 2.00099 ++++++++++++++to 2.00099
Heightened Def Con from 2.00099 ++++++++++++++to 2.00099
Heightened Def Con from 2.00099 ++++++++++++++to 2.00099
Heightened Def Con from 2.00099 ++++++++++++++to 2.00099
Heightened Def Con from 2.00099 ++++++++++++++to 2.00099
Heightened Def Con from 2.00099 ++++++++++++++to 2.00099
Heightened Def Con from 2.00099 ++++++++++++++to 2.00099
Heightened Def Con from 2.00099 ++++++++++++++to 2.00099
Heightened Def Con from 2.00099 ++++++++++++++to 2.00099
Heightened Def Con from 2.00099 ++++++++++++++to 2.00099
Heightened Def Con from 2.00099 ++++++++++++++to 2.00099
Heightened Def Con from 2.00099 ++++++++++++++to 2.00099
Heightened Def Con from 2.00099 ++++++++++++++to 2.00099
Heightened Def Con from 2.00099 ++++++++++++++to 2.00099
Heightened Def Con from 2.00099 ++++++++++++++to 2.00099
Heightened Def Con from 2.00099 ++++++++++++++to 2.00099
Heightened Def Con from 2.00099 ++++++++++++++to 2.00099
Heightened Def Con from 2.00099 ++++++++++++++to 2.00099
Heightened Def Con from 2.00099 ++++++++++++++to 2.00099
Heightened Def Con from 2.00099 ++++++++++++++to 2.00099
Heightened Def Con from 2.00099 ++++++++++++++to 2.00099
Heightened Def Con from 2.00099 ++++++++++++++to 2.00099
Heightened Def Con from 2.00099 ++++++++++++++to 2.00099
Heightened Def Con from 2.00099 ++++++++++++++to 2.00099
Heightened Def Con from 2.00099 ++++++++++++++to 2.00099
Heightened Def Con from 2.00099 +++++++++++++++to 2.00099
Heightened Def Con from 2.00099 +to 2.00099
Heightened Def Con from 2.00099 +to 2.00099
Heightened Def Con from 2.00099 ++to 2.00099
Heightened Def Con from 2.00099 ++to 2.00099
Heightened Def Con from 2.00099 +++to 2.00099
Heightened Def Con from 2.00099 +++to 2.00099
Heightened Def Con from 2.00099 +++to 2.00099
Heightened Def Con from 2.00099 +++to 2.00099
Heightened Def Con from 2.00099 +++to 2.00099
Heightened Def Con from 2.00099 ++++to 2.00099
Heightened Def Con from 2.00099 ++++to 2.00099
Heightened Def Con from 2.00099 +++++to 2.00099
Heightened Def Con from 2.00099 +++++to 2.00099
Heightened Def Con from 2.00099 +++++to 2.00099
Heightened Def Con from 2.00099 ++++++to 2.00099
Heightened Def Con from 2.00099 ++++++to 2.00099
Heightened Def Con from 2.00099 ++++++to 2.00099
Heightened Def Con from 2.00099 ++++++to 2.00099
Heightened Def Con from 2.00099 ++++++to 2.00099
Heightened Def Con from 2.00099 ++++++to 2.00099
Heightened Def Con from 2.00099 +++++++to 2.00099
Heightened Def Con from 2.00099 +++++++to 2.00099
Heightened Def Con from 2.00099 +++++++to 2.00099
Heightened Def Con from 2.00099 +++++++to 2.00099
Heightened Def Con from 2.00099 +++++++to 2.00099
Heightened Def Con from 2.00099 +++++++to 2.00099
Heightened Def Con from 2.00099 +++++++to 2.00099
Heightened Def Con from 2.00099 +++++++to 2.00099
Heightened Def Con from 2.00099 +++++++to 2.00099
Heightened Def Con from 2.00099 +++++++to 2.00099
Heightened Def Con from 2.00099 +++++++to 2.00099
Heightened Def Con from 2.00099 +++++++to 2.00099
Heightened Def Con from 2.00099 +++++++to 2.00099
Heightened Def Con from 2.00099 +++++++to 2.00099
Heightened Def Con from 2.00099 ++++++++to 2.00099
Heightened Def Con from 2.00099 ++++++++to 2.00099
Heightened Def Con from 2.00099 ++++++++to 2.00099
Heightened Def Con from 2.00099 ++++++++to 2.00099
Heightened Def Con from 2.00099 ++++++++to 2.00099
Heightened Def Con from 2.00099 ++++++++to 2.00099
Heightened Def Con from 2.00099 ++++++++to 2.00099
Heightened Def Con from 2.00099 ++++++++to 2.00099
Heightened Def Con from 2.00099 +++++++++to 2.00099
Heightened Def Con from 2.00099 +++++++++to 2.00099
Heightened Def Con from 2.00099 +++++++++to 2.00099
Heightened Def Con from 2.00099 +++++++++to 2.00099
Heightened Def Con from 2.00099 +++++++++to 2.00099
Heightened Def Con from 2.00099 ++++++++++to 2.00099
Heightened Def Con from 2.00099 ++++++++++to 2.00099
Heightened Def Con from 2.00099 ++++++++++to 2.00099
Heightened Def Con from 2.00099 ++++++++++to 2.00099
Heightened Def Con from 2.00099 ++++++++++to 2.00099
Heightened Def Con from 2.00099 ++++++++++to 2.00099
Heightened Def Con from 2.00099 ++++++++++to 2.00099
Heightened Def Con from 2.00099 ++++++++++to 2.00099
Heightened Def Con from 2.00099 ++++++++++to 2.00099
Heightened Def Con from 2.00099 ++++++++++to 2.00099
Heightened Def Con from 2.00099 ++++++++++to 2.00099
Heightened Def Con from 2.00099 ++++++++++to 2.00099
Heightened Def Con from 2.00099 +++++++++++to 2.00099
Heightened Def Con from 2.00099 +++++++++++to 2.00099
Heightened Def Con from 2.00099 +++++++++++to 2.00099
Heightened Def Con from 2.00099 +++++++++++to 2.00099
Heightened Def Con from 2.00099 +++++++++++to 2.00099
Heightened Def Con from 2.00099 +++++++++++to 2.00099
Heightened Def Con from 2.00099 +++++++++++to 2.00099
Heightened Def Con from 2.00099 +++++++++++to 2.00099
Heightened Def Con from 2.00099 +++++++++++to 2.00099
Heightened Def Con from 2.00099 +++++++++++to 2.00099
Heightened Def Con from 2.00099 +++++++++++to 2.00099
Heightened Def Con from 2.00099 ++++++++++++to 2.00099
Heightened Def Con from 2.00099 ++++++++++++to 2.00099
Heightened Def Con from 2.00099 ++++++++++++to 2.00099
Heightened Def Con from 2.00099 ++++++++++++to 2.00099
Heightened Def Con from 2.00099 ++++++++++++to 2.00099
Heightened Def Con from 2.00099 ++++++++++++to 2.00099
Heightened Def Con from 2.00099 +++++++++++++to 2.00099
Heightened Def Con from 2.00099 +++++++++++++to 2.00099
Heightened Def Con from 2.00099 +++++++++++++to 2.00099
Heightened Def Con from 2.00099 +++++++++++++to 2.00099
Heightened Def Con from 2.00099 +++++++++++++to 2.00099
Heightened Def Con from 2.00099 +++++++++++++to 2.00099
Heightened Def Con from 2.00099 +++++++++++++to 2.00099
Heightened Def Con from 2.00099 +++++++++++++to 2.00099
Heightened Def Con from 2.00099 +++++++++++++to 2.00099
Heightened Def Con from 2.00099 +++++++++++++to 2.00099
Heightened Def Con from 2.00099 ++++++++++++++to 2.00099
Heightened Def Con from 2.00099 ++++++++++++++to 2.00099
Heightened Def Con from 2.00099 ++++++++++++++to 2.00099
Heightened Def Con from 2.00099 ++++++++++++++to 2.00099
Heightened Def Con from 2.00099 ++++++++++++++to 2.00099
Heightened Def Con from 2.00099 ++++++++++++++to 2.00099
Heightened Def Con from 2.00099 ++++++++++++++to 2.00099
Heightened Def Con from 2.00099 ++++++++++++++to 2.00099
Heightened Def Con from 2.00099 ++++++++++++++to 2.00099
Heightened Def Con from 2.00099 ++++++++++++++to 2.00099
Heightened Def Con from 2.00099 ++++++++++++++to 2.00099
Heightened Def Con from 2.00099 ++++++++++++++to 2.00099
Heightened Def Con from 2.00099 ++++++++++++++to 2.00099
Heightened Def Con from 2.00099 ++++++++++++++to 2.00099
Heightened Def Con from 2.00099 ++++++++++++++to 2.00099
Heightened Def Con from 2.00099 ++++++++++++++to 2.00099
Heightened Def Con from 2.00099 ++++++++++++++to 2.00099
Heightened Def Con from 2.00099 ++++++++++++++to 2.00099
Heightened Def Con from 2.00099 ++++++++++++++to 2.00099
Heightened Def Con from 2.00099 ++++++++++++++to 2.00099
Heightened Def Con from 2.00099 ++++++++++++++to 2.00099
Heightened Def Con from 2.00099 +++++++++++++++to 2.00099
Heightened Def Con from 2.00099 +to 2.00099
Heightened Def Con from 2.00099 ++to 2.00099
Heightened Def Con from 2.00099 ++to 2.00099
Heightened Def Con from 2.00099 +++to 2.00099
Heightened Def Con from 2.00099 +++to 2.00099
Heightened Def Con from 2.00099 +++to 2.00099
Heightened Def Con from 2.00099 +++to 2.00099
Heightened Def Con from 2.00099 ++++to 2.00099
Heightened Def Con from 2.00099 ++++to 2.00099
Heightened Def Con from 2.00099 ++++to 2.00099
Heightened Def Con from 2.00099 ++++to 2.00099
Heightened Def Con from 2.00099 ++++to 2.00099
Heightened Def Con from 2.00099 ++++to 2.00099
Heightened Def Con from 2.00099 ++++to 2.00099
Heightened Def Con from 2.00099 +++++to 2.00099
Heightened Def Con from 2.00099 +++++to 2.00099
Heightened Def Con from 2.00099 +++++to 2.00099
Heightened Def Con from 2.00099 +++++to 2.00099
Heightened Def Con from 2.00099 +++++to 2.00099
Heightened Def Con from 2.00099 +++++to 2.00099
Heightened Def Con from 2.00099 +++++to 2.00099
Heightened Def Con from 2.00099 +++++to 2.00099
[...]
Heightened Def Con from 2.001 ++++++++++to 2.001
Heightened Def Con from 2.001 ++++++++++to 2.001
Heightened Def Con from 2.001 ++++++++++to 2.001
Heightened Def Con from 2.001 ++++++++++to 2.001
Heightened Def Con from 2.001 ++++++++++to 2.001
Heightened Def Con from 2.001 +++++++++++to 2.001
Heightened Def Con from 2.001 +++++++++++to 2.001
Heightened Def Con from 2.001 +++++++++++to 2.001
Heightened Def Con from 2.001 +++++++++++to 2.001
Heightened Def Con from 2.001 +++++++++++to 2.001
Heightened Def Con from 2.001 +++++++++++to 2.001
Heightened Def Con from 2.001 +++++++++++to 2.001
Heightened Def Con from 2.001 +++++++++++to 2.001
Heightened Def Con from 2.001 +++++++++++to 2.001
Heightened Def Con from 2.001 +++++++++++to 2.001
Heightened Def Con from 2.001 +++++++++++to 2.001
Heightened Def Con from 2.001 +++++++++++to 2.001
Heightened Def Con from 2.001 +++++++++++to 2.001
Heightened Def Con from 2.001 ++++++++++++to 2.001
Heightened Def Con from 2.001 ++++++++++++to 2.001
Heightened Def Con from 2.001 ++++++++++++to 2.001
Heightened Def Con from 2.001 ++++++++++++to 2.001
Heightened Def Con from 2.001 ++++++++++++to 2.001
Heightened Def Con from 2.001 ++++++++++++to 2.001
Heightened Def Con from 2.001 ++++++++++++to 2.001
Heightened Def Con from 2.001 ++++++++++++to 2.001
Heightened Def Con from 2.001 ++++++++++++to 2.001
Heightened Def Con from 2.001 ++++++++++++to 2.001
Heightened Def Con from 2.001 ++++++++++++to 2.001
Heightened Def Con from 2.001 +++++++++++++to 2.001
Heightened Def Con from 2.001 +++++++++++++to 2.001
Heightened Def Con from 2.001 +++++++++++++to 2.001
Heightened Def Con from 2.001 +++++++++++++to 2.001
Heightened Def Con from 2.001 +++++++++++++to 2.001
Heightened Def Con from 2.001 +++++++++++++to 2.001
Heightened Def Con from 2.001 +++++++++++++to 2.001
Heightened Def Con from 2.001 +++++++++++++to 2.001
Heightened Def Con from 2.001 ++++++++++++++to 2.001
Heightened Def Con from 2.001 ++++++++++++++to 2.001
Heightened Def Con from 2.001 ++++++++++++++to 2.001
Heightened Def Con from 2.001 ++++++++++++++to 2.001
Heightened Def Con from 2.001 ++++++++++++++to 2.001
Heightened Def Con from 2.001 ++++++++++++++to 2.001
Heightened Def Con from 2.001 ++++++++++++++to 2.001
Heightened Def Con from 2.001 ++++++++++++++to 2.001
Heightened Def Con from 2.001 ++++++++++++++to 2.001
Heightened Def Con from 2.001 ++++++++++++++to 2.001
Heightened Def Con from 2.001 ++++++++++++++to 2.001
Heightened Def Con from 2.001 ++++++++++++++to 2.001
Heightened Def Con from 2.001 ++++++++++++++to 2.001
Heightened Def Con from 2.001 ++++++++++++++to 2.001
Heightened Def Con from 2.001 ++++++++++++++to 2.001
Heightened Def Con from 2.001 ++++++++++++++to 2.001
Heightened Def Con from 2.001 ++++++++++++++to 2.001
Heightened Def Con from 2.001 ++++++++++++++to 2.001
Heightened Def Con from 2.001 +++++++++++++++to 2.001
Heightened Def Con from 2.001 +++++++++++++++to 2.001
Heightened Def Con from 2.001 +++++++++++++++to 2.001
Heightened Def Con from 2.001 +++++++++++++++to 2.001
Heightened Def Con from 2.001 +++++++++++++++to 2.001
Heightened Def Con from 2.001 +++++++++++++++to 2.001
Heightened Def Con from 2.001 +++++++++++++++to 2.001
Heightened Def Con from 2.001 +++++++++++++++to 2.001
Heightened Def Con from 2.001 +++++++++++++++to 2.001
Heightened Def Con from 2.001 ++++++++++++++++to 2.001
Heightened Def Con from 2.001 ++++++++++++++++to 2.001
Heightened Def Con from 2.001 ++++++++++++++++to 2.001
Heightened Def Con from 2.001 ++++++++++++++++to 2.001
Heightened Def Con from 2.001 ++++++++++++++++to 2.001
Heightened Def Con from 2.001 ++++++++++++++++to 2.001
Heightened Def Con from 2.001 ++++++++++++++++to 2.001
Heightened Def Con from 2.001 ++++++++++++++++to 2.001
Heightened Def Con from 2.001 ++++++++++++++++to 2.001
Heightened Def Con from 2.001 ++++++++++++++++to 2.001
Heightened Def Con from 2.001 +++++++++++++++++to 2.001
Heightened Def Con from 2.001 +++++++++++++++++to 2.001
Heightened Def Con from 2.001 +++++++++++++++++to 2.001
Heightened Def Con from 2.001 +++++++++++++++++to 2.001
Heightened Def Con from 2.001 +++++++++++++++++to 2.001
Heightened Def Con from 2.001 +++++++++++++++++to 2.001
Heightened Def Con from 2.001 +++++++++++++++++to 2.001
Heightened Def Con from 2.001 +++++++++++++++++to 2.001
Heightened Def Con from 2.001 +++++++++++++++++to 2.001
Heightened Def Con from 2.001 +++++++++++++++++to 2.001
Heightened Def Con from 2.001 +++++++++++++++++to 2.001
Heightened Def Con from 2.001 +++++++++++++++++to 2.001
Heightened Def Con from 2.001 +++++++++++++++++to 2.001
Heightened Def Con from 2.001 +++++++++++++++++to 2.001
Heightened Def Con from 2.001 ++++++++++++++++++to 2.001
Heightened Def Con from 2.001 ++++++++++++++++++to 2.001
Heightened Def Con from 2.001 ++++++++++++++++++to 2.001
Heightened Def Con from 2.001 ++++++++++++++++++to 2.001
Heightened Def Con from 2.001 ++++++++++++++++++to 2.001
Heightened Def Con from 2.001 ++++++++++++++++++to 2.001
Heightened Def Con from 2.001 ++++++++++++++++++to 2.001
Heightened Def Con from 2.001 ++++++++++++++++++to 2.001
Heightened Def Con from 2.001 ++++++++++++++++++to 2.001
Heightened Def Con from 2.001 ++++++++++++++++++to 2.001
Heightened Def Con from 2.001 ++++++++++++++++++to 2.001
Heightened Def Con from 2.001 ++++++++++++++++++to 2.001
Heightened Def Con from 2.001 ++++++++++++++++++to 2.001
Heightened Def Con from 2.001 ++++++++++++++++++to 2.001
Heightened Def Con from 2.001 ++++++++++++++++++to 2.001
Heightened Def Con from 2.001 ++++++++++++++++++to 2.001
Heightened Def Con from 2.001 ++++++++++++++++++to 2.001
Heightened Def Con from 2.001 ++++++++++++++++++to 2.001
Heightened Def Con from 2.001 ++++++++++++++++++to 2.001
Heightened Def Con from 2.001 ++++++++++++++++++to 2.001
Heightened Def Con from 2.001 ++++++++++++++++++to 2.001
Heightened Def Con from 2.001 ++++++++++++++++++to 2.001
Heightened Def Con from 2.001 ++++++++++++++++++to 2.001
Heightened Def Con from 2.001 ++++++++++++++++++to 2.001
Heightened Def Con from 2.001 ++++++++++++++++++to 2.001
Heightened Def Con from 2.001 ++++++++++++++++++to 2.001
Heightened Def Con from 2.001 ++++++++++++++++++to 2.001
Heightened Def Con from 2.001 ++++++++++++++++++to 2.001
Heightened Def Con from 2.001 ++++++++++++++++++to 2.001
Heightened Def Con from 2.001 ++++++++++++++++++to 2.001
Heightened Def Con from 2.001 ++++++++++++++++++to 2.001
Heightened Def Con from 2.001 +++++++++++++++++++to 2.001
Heightened Def Con from 2.001 +++to 2.001
Heightened Def Con from 2.001 ++++to 2.001
Heightened Def Con from 2.001 +++++to 2.001
Heightened Def Con from 2.001 ++++++to 2.001
Heightened Def Con from 2.001 ++++++to 2.001
Heightened Def Con from 2.001 +++++++to 2.001
Heightened Def Con from 2.001 +++++++to 2.001
Heightened Def Con from 2.001 +++++++to 2.001
Heightened Def Con from 2.001 +++++++to 2.001
Heightened Def Con from 2.001 +++++++to 2.001
Heightened Def Con from 2.001 ++++++++to 2.001
Heightened Def Con from 2.001 +++++++++to 2.001
Heightened Def Con from 2.001 +++++++++to 2.001
Heightened Def Con from 2.001 +++++++++to 2.001
Heightened Def Con from 2.001 ++++++++++to 2.001
Heightened Def Con from 2.001 ++++++++++to 2.001
Heightened Def Con from 2.001 ++++++++++to 2.001
Heightened Def Con from 2.001 ++++++++++to 2.001
Heightened Def Con from 2.001 ++++++++++to 2.001
Heightened Def Con from 2.001 +++++++++++to 2.001
Heightened Def Con from 2.001 +++++++++++to 2.001
Heightened Def Con from 2.001 +++++++++++to 2.001
Heightened Def Con from 2.001 +++++++++++to 2.001
Heightened Def Con from 2.001 +++++++++++to 2.001
Heightened Def Con from 2.001 +++++++++++to 2.001
Heightened Def Con from 2.001 +++++++++++to 2.001
Heightened Def Con from 2.001 +++++++++++to 2.001
Heightened Def Con from 2.001 +++++++++++to 2.001
Heightened Def Con from 2.001 +++++++++++to 2.001
Heightened Def Con from 2.001 +++++++++++to 2.001
Heightened Def Con from 2.001 +++++++++++to 2.001
Heightened Def Con from 2.001 +++++++++++to 2.001
Heightened Def Con from 2.001 ++++++++++++to 2.001
Heightened Def Con from 2.001 ++++++++++++to 2.001
Heightened Def Con from 2.001 ++++++++++++to 2.001
Heightened Def Con from 2.001 ++++++++++++to 2.001
Heightened Def Con from 2.001 ++++++++++++to 2.001
Heightened Def Con from 2.001 ++++++++++++to 2.001
Heightened Def Con from 2.001 ++++++++++++to 2.001
Heightened Def Con from 2.001 ++++++++++++to 2.001
Heightened Def Con from 2.001 ++++++++++++to 2.001
Heightened Def Con from 2.001 ++++++++++++to 2.001
Heightened Def Con from 2.001 ++++++++++++to 2.001
Heightened Def Con from 2.001 +++++++++++++to 2.001
Heightened Def Con from 2.001 +++++++++++++to 2.001
Heightened Def Con from 2.001 +++++++++++++to 2.001
Heightened Def Con from 2.001 +++++++++++++to 2.001
Heightened Def Con from 2.001 +++++++++++++to 2.001
Heightened Def Con from 2.001 +++++++++++++to 2.001
Heightened Def Con from 2.001 +++++++++++++to 2.001
Heightened Def Con from 2.001 +++++++++++++to 2.001
Heightened Def Con from 2.001 ++++++++++++++to 2.001
Heightened Def Con from 2.001 ++++++++++++++to 2.001
Heightened Def Con from 2.001 ++++++++++++++to 2.001
Heightened Def Con from 2.001 ++++++++++++++to 2.001
Heightened Def Con from 2.001 ++++++++++++++to 2.001
Heightened Def Con from 2.001 ++++++++++++++to 2.001
Heightened Def Con from 2.001 ++++++++++++++to 2.001
Heightened Def Con from 2.001 ++++++++++++++to 2.001
Heightened Def Con from 2.001 ++++++++++++++to 2.001
Heightened Def Con from 2.001 ++++++++++++++to 2.001
Heightened Def Con from 2.001 ++++++++++++++to 2.001
Heightened Def Con from 2.001 ++++++++++++++to 2.001
Heightened Def Con from 2.001 ++++++++++++++to 2.001
Heightened Def Con from 2.001 ++++++++++++++to 2.001
Heightened Def Con from 2.001 ++++++++++++++to 2.001
Heightened Def Con from 2.001 ++++++++++++++to 2.001
Heightened Def Con from 2.001 ++++++++++++++to 2.001
Heightened Def Con from 2.001 ++++++++++++++to 2.001
Heightened Def Con from 2.001 +++++++++++++++to 2.001
Heightened Def Con from 2.001 +++++++++++++++to 2.001
Heightened Def Con from 2.001 +++++++++++++++to 2.001
Heightened Def Con from 2.001 +++++++++++++++to 2.001
Heightened Def Con from 2.001 +++++++++++++++to 2.001
Heightened Def Con from 2.001 +++++++++++++++to 2.001
Heightened Def Con from 2.001 +++++++++++++++to 2.001
Heightened Def Con from 2.001 +++++++++++++++to 2.001
Heightened Def Con from 2.001 ++++++++++++++++to 2.001
Heightened Def Con from 2.001 ++++++++++++++++to 2.001
Heightened Def Con from 2.001 ++++++++++++++++to 2.001
Heightened Def Con from 2.001 ++++++++++++++++to 2.001
Heightened Def Con from 2.001 ++++++++++++++++to 2.001
Heightened Def Con from 2.001 ++++++++++++++++to 2.001
Heightened Def Con from 2.001 ++++++++++++++++to 2.001
Heightened Def Con from 2.001 ++++++++++++++++to 2.001
Heightened Def Con from 2.001 +++++++++++++++++to 2.001
Heightened Def Con from 2.001 +++++++++++++++++to 2.001
Heightened Def Con from 2.001 +++++++++++++++++to 2.001
Heightened Def Con from 2.001 +++++++++++++++++to 2.001
Heightened Def Con from 2.001 +++++++++++++++++to 2.001
Heightened Def Con from 2.001 +++++++++++++++++to 2.001
Heightened Def Con from 2.001 +++++++++++++++++to 2.001
Heightened Def Con from 2.001 +++++++++++++++++to 2.001
Heightened Def Con from 2.001 +++++++++++++++++to 2.001
Heightened Def Con from 2.001 +++++++++++++++++to 2.001
Heightened Def Con from 2.001 +++++++++++++++++to 2.001
Heightened Def Con from 2.001 +++++++++++++++++to 2.001
Heightened Def Con from 2.001 +++++++++++++++++to 2.001
Heightened Def Con from 2.001 +++++++++++++++++to 2.001
Heightened Def Con from 2.001 +++++++++++++++++to 2.001
Heightened Def Con from 2.001 +++++++++++++++++to 2.001
Heightened Def Con from 2.001 ++++++++++++++++++to 2.001
Heightened Def Con from 2.001 ++++++++++++++++++to 2.001
Heightened Def Con from 2.001 ++++++++++++++++++to 2.001
Heightened Def Con from 2.001 ++++++++++++++++++to 2.001
Heightened Def Con from 2.001 ++++++++++++++++++to 2.001
Heightened Def Con from 2.001 ++++++++++++++++++to 2.001
Heightened Def Con from 2.001 ++++++++++++++++++to 2.001
Heightened Def Con from 2.001 ++++++++++++++++++to 2.001
Heightened Def Con from 2.001 ++++++++++++++++++to 2.001
Heightened Def Con from 2.001 ++++++++++++++++++to 2.001
Heightened Def Con from 2.001 ++++++++++++++++++to 2.001
Heightened Def Con from 2.001 ++++++++++++++++++to 2.001
Heightened Def Con from 2.001 ++++++++++++++++++to 2.001
Heightened Def Con from 2.001 ++++++++++++++++++to 2.001
Heightened Def Con from 2.001 ++++++++++++++++++to 2.001
Heightened Def Con from 2.001 ++++++++++++++++++to 2.001
Heightened Def Con from 2.001 ++++++++++++++++++to 2.001
Heightened Def Con from 2.001 ++++++++++++++++++to 2.001
Heightened Def Con from 2.001 ++++++++++++++++++to 2.001
Heightened Def Con from 2.001 ++++++++++++++++++to 2.001
Heightened Def Con from 2.001 ++++++++++++++++++to 2.001
Heightened Def Con from 2.001 ++++++++++++++++++to 2.001
Heightened Def Con from 2.001 ++++++++++++++++++to 2.001
Heightened Def Con from 2.001 ++++++++++++++++++to 2.001
Heightened Def Con from 2.001 ++++++++++++++++++to 2.001
Heightened Def Con from 2.001 ++++++++++++++++++to 2.001
Heightened Def Con from 2.001 ++++++++++++++++++to 2.001
Heightened Def Con from 2.001 ++++++++++++++++++to 2.001
Heightened Def Con from 2.001 ++++++++++++++++++to 2.001
Heightened Def Con from 2.001 ++++++++++++++++++to 2.001
Heightened Def Con from 2.001 ++++++++++++++++++to 2.001
Heightened Def Con from 2.001 ++++++++++++++++++to 2.001
Heightened Def Con from 2.001 ++++++++++++++++++to 2.001
Heightened Def Con from 2.001 ++++++++++++++++++to 2.001
Heightened Def Con from 2.001 ++++++++++++++++++to 2.001
Heightened Def Con from 2.001 ++++++++++++++++++to 2.001
Heightened Def Con from 2.001 +++++++++++++++++++to 2.001
Heightened Def Con from 2.001 +++to 2.001
Heightened Def Con from 2.001 ++++to 2.001
Heightened Def Con from 2.001 +++++to 2.001
Heightened Def Con from 2.001 ++++++to 2.001
Heightened Def Con from 2.001 ++++++to 2.001
Heightened Def Con from 2.001 +++++++to 2.001
Heightened Def Con from 2.001 +++++++to 2.001
Heightened Def Con from 2.001 +++++++to 2.001
Heightened Def Con from 2.001 +++++++to 2.001
Heightened Def Con from 2.001 +++++++to 2.001
Heightened Def Con from 2.001 ++++++++to 2.001
Heightened Def Con from 2.001 +++++++++to 2.001
Heightened Def Con from 2.001 +++++++++to 2.001
Heightened Def Con from 2.001 +++++++++to 2.001
Heightened Def Con from 2.001 ++++++++++to 2.001
Heightened Def Con from 2.001 ++++++++++to 2.001
Heightened Def Con from 2.001 ++++++++++to 2.001
Heightened Def Con from 2.001 ++++++++++to 2.001
Heightened Def Con from 2.001 ++++++++++to 2.001
Heightened Def Con from 2.001 +++++++++++to 2.001
Heightened Def Con from 2.001 +++++++++++to 2.001
Heightened Def Con from 2.001 +++++++++++to 2.001
Heightened Def Con from 2.001 +++++++++++to 2.001
Heightened Def Con from 2.001 +++++++++++to 2.001
Heightened Def Con from 2.001 +++++++++++to 2.001
Heightened Def Con from 2.001 +++++++++++to 2.001
Heightened Def Con from 2.001 +++++++++++to 2.001
Heightened Def Con from 2.001 +++++++++++to 2.001
Heightened Def Con from 2.001 +++++++++++to 2.001
Heightened Def Con from 2.001 +++++++++++to 2.001
Heightened Def Con from 2.001 +++++++++++to 2.001
Heightened Def Con from 2.001 +++++++++++to 2.001
Heightened Def Con from 2.001 ++++++++++++to 2.001
Heightened Def Con from 2.001 ++++++++++++to 2.001
Heightened Def Con from 2.001 ++++++++++++to 2.001
Heightened Def Con from 2.001 ++++++++++++to 2.001
Heightened Def Con from 2.001 ++++++++++++to 2.001
Heightened Def Con from 2.001 ++++++++++++to 2.001
Heightened Def Con from 2.001 ++++++++++++to 2.001
Heightened Def Con from 2.001 ++++++++++++to 2.001
Heightened Def Con from 2.001 ++++++++++++to 2.001
Heightened Def Con from 2.001 ++++++++++++to 2.001
Heightened Def Con from 2.001 ++++++++++++to 2.001
Heightened Def Con from 2.001 +++++++++++++to 2.001
Heightened Def Con from 2.001 +++++++++++++to 2.001
Heightened Def Con from 2.001 +++++++++++++to 2.001
Heightened Def Con from 2.001 +++++++++++++to 2.001
Heightened Def Con from 2.001 +++++++++++++to 2.001
Heightened Def Con from 2.001 +++++++++++++to 2.001
Heightened Def Con from 2.001 +++++++++++++to 2.001
Heightened Def Con from 2.001 +++++++++++++to 2.001
Heightened Def Con from 2.001 ++++++++++++++to 2.001
Heightened Def Con from 2.001 ++++++++++++++to 2.001
Heightened Def Con from 2.001 ++++++++++++++to 2.001
Heightened Def Con from 2.001 ++++++++++++++to 2.001
Heightened Def Con from 2.001 ++++++++++++++to 2.001
Heightened Def Con from 2.001 ++++++++++++++to 2.001
Heightened Def Con from 2.001 ++++++++++++++to 2.001
Heightened Def Con from 2.001 ++++++++++++++to 2.001
Heightened Def Con from 2.001 ++++++++++++++to 2.001
Heightened Def Con from 2.001 ++++++++++++++to 2.001
Heightened Def Con from 2.001 ++++++++++++++to 2.001
Heightened Def Con from 2.001 ++++++++++++++to 2.001
Heightened Def Con from 2.001 ++++++++++++++to 2.001
Heightened Def Con from 2.001 ++++++++++++++to 2.001
Heightened Def Con from 2.001 ++++++++++++++to 2.001
Heightened Def Con from 2.001 ++++++++++++++to 2.001
Heightened Def Con from 2.001 ++++++++++++++to 2.001
Heightened Def Con from 2.001 ++++++++++++++to 2.001
Heightened Def Con from 2.001 +++++++++++++++to 2.001
Heightened Def Con from 2.001 +++++++++++++++to 2.001
Heightened Def Con from 2.001 +++++++++++++++to 2.001
Heightened Def Con from 2.001 +++++++++++++++to 2.001
Heightened Def Con from 2.001 +++++++++++++++to 2.001
Heightened Def Con from 2.001 +++++++++++++++to 2.001
Heightened Def Con from 2.001 +++++++++++++++to 2.001
Heightened Def Con from 2.001 ++++++++++++++++to 2.001
Heightened Def Con from 2.001 ++++++++++++++++to 2.001
Heightened Def Con from 2.001 ++++++++++++++++to 2.001
Heightened Def Con from 2.001 ++++++++++++++++to 2.001
Heightened Def Con from 2.001 ++++++++++++++++to 2.001
Heightened Def Con from 2.001 ++++++++++++++++to 2.001
Heightened Def Con from 2.001 ++++++++++++++++to 2.001
Heightened Def Con from 2.001 ++++++++++++++++to 2.001
Heightened Def Con from 2.001 ++++++++++++++++to 2.001
Heightened Def Con from 2.001 ++++++++++++++++to 2.001
Heightened Def Con from 2.001 ++++++++++++++++to 2.001
Heightened Def Con from 2.001 ++++++++++++++++to 2.001
Heightened Def Con from 2.001 ++++++++++++++++to 2.001
Heightened Def Con from 2.001 ++++++++++++++++to 2.001
Heightened Def Con from 2.001 ++++++++++++++++to 2.001
Heightened Def Con from 2.001 ++++++++++++++++to 2.001
Heightened Def Con from 2.001 ++++++++++++++++to 2.001
Heightened Def Con from 2.001 ++++++++++++++++to 2.001
Heightened Def Con from 2.001 +++++++++++++++++to 2.001
Heightened Def Con from 2.001 +++++++++++++++++to 2.001
Heightened Def Con from 2.001 +++++++++++++++++to 2.001
Heightened Def Con from 2.001 +++++++++++++++++to 2.001
Heightened Def Con from 2.001 +++++++++++++++++to 2.001
Heightened Def Con from 2.001 +++++++++++++++++to 2.001
Heightened Def Con from 2.001 +++++++++++++++++to 2.001
Heightened Def Con from 2.001 +++++++++++++++++to 2.001
Heightened Def Con from 2.001 +++++++++++++++++to 2.001
Heightened Def Con from 2.001 +++++++++++++++++to 2.001
Heightened Def Con from 2.001 +++++++++++++++++to 2.001
Heightened Def Con from 2.001 +++++++++++++++++to 2.001
Heightened Def Con from 2.001 +++++++++++++++++to 2.001
Heightened Def Con from 2.001 ++++++++++++++++++to 2.001
Heightened Def Con from 2.001 ++++++++++++++++++to 2.001
Heightened Def Con from 2.001 ++++++++++++++++++to 2.001
Heightened Def Con from 2.001 ++++++++++++++++++to 2.001
Heightened Def Con from 2.001 +to 2.001

Date: Wed May 23 21:31:48 2018
Total elapsed time: 409.302 seconds.

tnom = 27
temp = 27
method = modified trap
totiter = 70166525
traniter = 70166145
tranpoints = 6432442
accept = 866883
rejected = 6359705
matrix size = 44
fillins = 18
solver = Normal
Matrix Compiler1: 3.21 KB object code size  1.1/0.8/[0.5]
Matrix Compiler2: off  [0.5]/0.8/0.7

