Circuit: * C:\Users\mzahedi\Documents\Git\RoboFriend\simulation\vin\vin.asc

Direct Newton iteration for .op point succeeded.

Date: Wed May 23 01:12:49 2018
Total elapsed time: 0.250 seconds.

tnom = 27
temp = 27
method = modified trap
totiter = 4460
traniter = 4441
tranpoints = 1393
accept = 1097
rejected = 296
matrix size = 39
fillins = 20
solver = Normal
Matrix Compiler1: 3.31 KB object code size  1.3/0.7/[0.3]
Matrix Compiler2: 3.31 KB object code size  0.5/0.8/[0.5]

