Circuit: * C:\Users\mzahedi\Documents\Git\RoboFriend\simulation\adc\adc.asc

WARNING: Less than two connections to node 12V.  This node is used by V3.
WARNING: Less than two connections to node 24V.  This node is used by V5.
Direct Newton iteration for .op point succeeded.

Date: Tue Jul 17 15:56:43 2018
Total elapsed time: 0.246 seconds.

tnom = 27
temp = 27
method = modified trap
totiter = 2782
traniter = 2769
tranpoints = 1093
accept = 880
rejected = 213
matrix size = 32
fillins = 0
solver = Normal
Matrix Compiler1: 1.06 KB object code size  1.4/1.0/[0.5]
Matrix Compiler2: 2.13 KB object code size  1.0/1.5/[0.5]

