Circuit: * C:\Users\mzahedi\Documents\Git\RoboFriend\simulation\vin-ver-3\vin.asc

WARNING: Node NC_01 is floating.
WARNING: Node N018 is floating.
WARNING: Node NC_02 is floating.

WARNING: Less than two connections to node NC_01.  This node is used by C2.
WARNING: Less than two connections to node N018.  This node is used by C3.
WARNING: Less than two connections to node NC_02.  This node is used by C1.
Direct Newton iteration failed to find .op point.  (Use ".option noopiter" to skip.)
Starting Gmin stepping
Gmin = 10
Gmin = 1.07374
Gmin = 0.115292
Gmin = 0.0123794
Gmin = 0.00132923
Gmin = 0.000142725
Gmin = 1.5325e-005
Gmin = 1.6455e-006
Gmin = 1.76685e-007
Gmin = 1.89714e-008
Gmin = 2.03704e-009
Gmin = 2.18725e-010
Gmin = 2.34854e-011
Gmin = 2.52173e-012
Gmin = 2.70769e-013
Gmin = 0
Gmin stepping succeeded in finding the operating point.


Date: Mon Jul 23 21:15:18 2018
Total elapsed time: 0.312 seconds.

tnom = 27
temp = 27
method = modified trap
totiter = 10529
traniter = 10109
tranpoints = 2613
accept = 1892
rejected = 721
matrix size = 41
fillins = 14
solver = Normal
Matrix Compiler1: 2.59 KB object code size  1.0/0.7/[0.4]
Matrix Compiler2: off  [0.5]/0.7/0.7

