Circuit: * C:\Users\mzahedi\Documents\Git\RoboFriend\simulation\vin-ver-3\vin.asc

WARNING: Node NC_01 is floating.
WARNING: Node N017 is floating.
WARNING: Node NC_02 is floating.

WARNING: Less than two connections to node NC_01.  This node is used by C2.
WARNING: Less than two connections to node N017.  This node is used by C3.
WARNING: Less than two connections to node NC_02.  This node is used by C1.
Direct Newton iteration failed to find .op point.  (Use ".option noopiter" to skip.)
Starting Gmin stepping
Gmin = 10
Gmin = 1.07374
Gmin = 0.115292
Gmin = 0.0123794
Gmin = 0.00132923
Gmin = 0.000142725
Gmin = 1.5325e-005
vernier = 0.5
vernier = 0.25
vernier = 0.125
vernier = 0.0625
vernier = 0.03125
vernier = 0.015625
vernier = 0.0078125
vernier = 0.00390625
Gmin = 1.91188e-005
vernier = 0.00520833
vernier = 0.00694444
Gmin = 1.88819e-005
vernier = 0.00925925
Gmin = 1.85037e-005
vernier = 0.0123457
vernier = 0.0164609
Gmin = 1.79008e-005
vernier = 0.0219478
vernier = 0.0292638
Gmin = 1.69863e-005
vernier = 0.0390184
Gmin = 1.56024e-005
vernier = 0.0520245
vernier = 0.0693659
Gmin = 1.35801e-005
vernier = 0.0924879
vernier = 0.123317
Gmin = 1.09081e-005
vernier = 0.164423
Gmin = 7.66201e-006
vernier = 0.21923
vernier = 0.292307
Gmin = 4.3243e-006
vernier = 0.389743
vernier = 0.519657
Gmin = 1.77298e-006
vernier = 0.259828
vernier = 0.129914
vernier = 0.0649571
vernier = 0.0324786
vernier = 0.0162393
vernier = 0.00811964
vernier = 0.00405982
Gmin = 1.38871e-006
vernier = 0.00202991
vernier = 0.00101495
vernier = 0.000507477
vernier = 0.000676636
Gmin = 1.38736e-006
vernier = 0.000902182
Gmin = 1.38455e-006
vernier = 0.00120291
vernier = 0.00160388
Gmin = 1.37984e-006
vernier = 0.0021385
vernier = 0.00285134
Gmin = 1.37236e-006
vernier = 0.00380178
Gmin = 1.36068e-006
vernier = 0.00506904
vernier = 0.00675872
Gmin = 1.34129e-006
vernier = 0.00901162
vernier = 0.0120155
Gmin = 1.31095e-006
vernier = 0.0160207
Gmin = 1.26462e-006
vernier = 0.0213609
vernier = 0.0284812
Gmin = 1.19058e-006
vernier = 0.0379749
vernier = 0.0506331
Gmin = 1.08155e-006
vernier = 0.0675108
Gmin = 9.30214e-007
vernier = 0.0900144
vernier = 0.120019
Gmin = 7.23164e-007
vernier = 0.160026
vernier = 0.213367
Gmin = 4.85516e-007
vernier = 0.28449
Gmin = 2.61151e-007
vernier = 0.37932
vernier = 0.505759
Gmin = 9.41846e-008
vernier = 0.674345
vernier = 0.899127
Gmin = 1.94304e-008
vernier = 1
Gmin = 2.26353e-009
Gmin = 2.43045e-010
Gmin = 2.60967e-011
Gmin = 2.80212e-012
Gmin = 3.00875e-013
Gmin = 0
Gmin stepping succeeded in finding the operating point.

Changing Tseed to 1e-008

Date: Tue Aug 07 15:04:51 2018
Total elapsed time: 2.050 seconds.

tnom = 27
temp = 27
method = modified trap
totiter = 119280
traniter = 116385
tranpoints = 39184
accept = 27496
rejected = 11687
matrix size = 52
fillins = 17
solver = Normal
Matrix Compiler1: 3.05 KB object code size  1.3/0.7/[0.4]
Matrix Compiler2: 4.33 KB object code size  0.6/1.0/[0.6]

