Circuit: * C:\Users\mzahedi\Documents\Git\RoboFriend\simulation\vin-ver-3\vin.asc

V2: both pins shorted together -- ignoring.
WARNING: Less than two connections to node N004.  This node is used by V1.
Direct Newton iteration failed to find .op point.  (Use ".option noopiter" to skip.)
Starting Gmin stepping
Gmin = 10
Gmin = 1.07374
Gmin = 0.115292
Gmin = 0.0123794
Gmin = 0.00132923
Gmin = 0.000142725
Gmin = 1.5325e-005
Gmin = 1.6455e-006
Gmin = 1.76685e-007
Gmin = 1.89714e-008
Gmin = 2.03704e-009
Gmin = 2.18725e-010
Gmin = 2.34854e-011
Gmin = 2.52173e-012
Gmin = 2.70769e-013
Gmin = 0
Gmin stepping succeeded in finding the operating point.


Date: Tue Jul 10 13:37:49 2018
Total elapsed time: 0.311 seconds.

tnom = 27
temp = 27
method = modified trap
totiter = 3479
traniter = 3034
tranpoints = 1145
accept = 891
rejected = 254
matrix size = 68
fillins = 17
solver = Normal
Matrix Compiler1: 4.54 KB object code size  1.9/1.0/[0.5]
Matrix Compiler2: 5.64 KB object code size  1.3/1.6/[0.7]

