Circuit: * C:\Users\mzahedi\Documents\Git\RoboFriend\simulation\vin-ver-1\vin.asc

WARNING: Less than two connections to node BUCK.  This node is used by S1.
WARNING: Less than two connections to node 12V.  This node is used by V5.
WARNING: Less than two connections to node 3.3V.  This node is used by V8.
Direct Newton iteration failed to find .op point.  (Use ".option noopiter" to skip.)
Starting Gmin stepping
Gmin = 10
Gmin = 1.07374
Gmin = 0.115292
Gmin = 0.0123794
Gmin = 0.00132923
Gmin = 0.000142725
Gmin = 1.5325e-005
Gmin = 1.6455e-006
Gmin = 1.76685e-007
Gmin = 1.89714e-008
Gmin = 2.03704e-009
Gmin = 2.18725e-010
Gmin = 2.34854e-011
Gmin = 2.52173e-012
Gmin = 2.70769e-013
Gmin = 0
Gmin stepping succeeded in finding the operating point.


Date: Fri May 25 16:55:46 2018
Total elapsed time: 0.691 seconds.

tnom = 27
temp = 27
method = modified trap
totiter = 8540
traniter = 8129
tranpoints = 2508
accept = 1935
rejected = 573
matrix size = 57
fillins = 25
solver = Normal
Matrix Compiler1: 4.49 KB object code size  1.5/0.8/[0.5]
Matrix Compiler2: 4.79 KB object code size  0.9/1.2/[0.5]

