Circuit: * C:\Users\mzahedi\Documents\Git\RoboFriend\simulation\vin-ver-1\vin.asc

WARNING: Less than two connections to node AUDIOAMP.  This node is used by S1.
Direct Newton iteration failed to find .op point.  (Use ".option noopiter" to skip.)
Starting Gmin stepping
Gmin = 10
Gmin = 1.07374
Gmin = 0.115292
Gmin = 0.0123794
Gmin = 0.00132923
Gmin = 0.000142725
Gmin = 1.5325e-005
Gmin = 1.6455e-006
Gmin = 1.76685e-007
Gmin = 1.89714e-008
Gmin = 2.03704e-009
Gmin = 2.18725e-010
Gmin = 2.34854e-011
Gmin = 2.52173e-012
Gmin = 2.70769e-013
Gmin = 0
Gmin stepping succeeded in finding the operating point.


Date: Mon Jul 23 22:03:36 2018
Total elapsed time: 0.496 seconds.

tnom = 27
temp = 27
method = modified trap
totiter = 10886
traniter = 10468
tranpoints = 3194
accept = 2477
rejected = 717
matrix size = 60
fillins = 25
solver = Normal
Matrix Compiler1: 5.22 KB object code size  2.3/1.2/[0.7]
Matrix Compiler2: 5.52 KB object code size  1.2/1.4/[0.6]

