Circuit: * C:\Users\mzahedi\Documents\Git\RoboFriend\simulation\level-shift\level-shifter.asc

Direct Newton iteration for .op point succeeded.

Date: Mon Jul 02 15:14:24 2018
Total elapsed time: 0.171 seconds.

tnom = 27
temp = 27
method = modified trap
totiter = 363
traniter = 354
tranpoints = 178
accept = 178
rejected = 0
matrix size = 10
fillins = 2
solver = Normal
Matrix Compiler1: 684 bytes object code size  0.3/0.3/[0.1]
Matrix Compiler2: off  [0.1]/0.3/0.2

