Circuit: * C:\Users\mzahedi\Documents\Git\RoboFriend\simulation\vin - Kopie\vin.asc

WARNING: Less than two connections to node BUCK.  This node is used by S1.
WARNING: Less than two connections to node 12V.  This node is used by V5.
WARNING: Less than two connections to node 3.3V.  This node is used by V8.
Direct Newton iteration failed to find .op point.  (Use ".option noopiter" to skip.)
Starting Gmin stepping
Gmin = 10
Gmin = 1.07374
Gmin = 0.115292
Gmin = 0.0123794
Gmin = 0.00132923
Gmin = 0.000142725
Gmin = 1.5325e-005
Gmin = 1.6455e-006
Gmin = 1.76685e-007
Gmin = 1.89714e-008
Gmin = 2.03704e-009
Gmin = 2.18725e-010
Gmin = 2.34854e-011
Gmin = 2.52173e-012
Gmin = 2.70769e-013
Gmin = 0
Gmin stepping succeeded in finding the operating point.


Date: Fri May 25 16:53:19 2018
Total elapsed time: 0.367 seconds.

tnom = 27
temp = 27
method = modified trap
totiter = 9707
traniter = 9295
tranpoints = 2914
accept = 2295
rejected = 619
matrix size = 66
fillins = 25
solver = Normal
Matrix Compiler1: 5.16 KB object code size  2.0/1.1/[0.7]
Matrix Compiler2: 5.65 KB object code size  0.8/1.2/[0.7]

