Circuit: * C:\Users\mzahedi\Documents\Git\RoboFriend\simulation\vin-ver-2\vin.asc

WARNING: Node N015 is floating.

WARNING: Less than two connections to node NC_01.  This node is used by D2.
WARNING: Less than two connections to node N015.  This node is used by C3.
WARNING: Less than two connections to node TP1.  This node is used by S1.
WARNING: Less than two connections to node N009.  This node is used by R11.
Direct Newton iteration failed to find .op point.  (Use ".option noopiter" to skip.)
Starting Gmin stepping
Gmin = 10
Gmin = 1.07374
vernier = 0.5
vernier = 0.25
vernier = 0.125
vernier = 0.0625
vernier = 0.03125
vernier = 0.015625
vernier = 0.0078125
vernier = 0.00390625
vernier = 0.00195313
Gmin = 1.07374
vernier = 0.000976563
vernier = 0.000488281
Gmin = 0
Gmin stepping failed

Starting source stepping with srcstepmethod=0
Source Step = 3.0303%
vernier = 0.25
Source Step = 0.0177557%
Source Step = 0.0473485%
Source Step = 0.0769413%
Source Step = 0.106534%
Source Step = 0.136127%
vernier = 0.00146484
Source Step = 0.167199%
Source Step = 0.211589%
Source Step = 0.255978%
Source Step = 0.300367%
Source Step = 0.344756%
Source Step = 0.389145%
vernier = 0.00219727
Source Step = 0.455729%
Source Step = 0.522313%
Source Step = 0.588897%
Source Step = 0.655481%
Source Step = 0.722064%
vernier = 0.0032959
Source Step = 0.818611%
Source Step = 0.918487%
Source Step = 1.01836%
Source Step = 1.11824%
Source Step = 1.21811%
vernier = 0.00494385
Source Step = 1.35794%
Source Step = 1.50775%
Source Step = 1.65757%
Source Step = 1.80738%
Source Step = 1.95719%
vernier = 0.00741577
Source Step = 2.15944%
Source Step = 2.38416%
Source Step = 2.60888%
Source Step = 2.8336%
Source Step = 3.05832%
vernier = 0.0111237
Source Step = 3.35046%
Source Step = 3.68754%
Source Step = 4.02462%
Source Step = 4.3617%
Source Step = 4.69878%
vernier = 0.0166855
Source Step = 5.12013%
Source Step = 5.62575%
Source Step = 6.13137%
Source Step = 6.637%
Source Step = 7.14262%
vernier = 0.0250282
Source Step = 7.74936%
Source Step = 8.50779%
Source Step = 9.26622%
Source Step = 10.0247%
Source Step = 10.7831%
vernier = 0.0375423
Source Step = 11.6553%
Source Step = 12.7929%
Source Step = 13.9306%
Source Step = 15.0682%
Source Step = 16.2059%
vernier = 0.0563135
Source Step = 17.4573%
Source Step = 19.1638%
Source Step = 20.8702%
Source Step = 22.5767%
Source Step = 24.2832%
vernier = 0.0844703
Source Step = 26.075%
Source Step = 28.6347%
Source Step = 31.1944%
Source Step = 33.7541%
Source Step = 36.3138%
Source Step = 38.8735%
vernier = 0.126705
Source Step = 42.713%
Source Step = 46.5526%
Source Step = 50.3922%
Source Step = 54.2317%
Source Step = 58.0713%
vernier = 0.190058
Source Step = 63.6386%
Source Step = 69.398%
Source Step = 75.1573%
Source Step = 80.9166%
Source Step = 86.676%
vernier = 0.285087
Source Step = 94.739%
Source Step = 100%
Source Step = 100%
Source stepping succeeded in finding the operating point.


Date: Tue Jul 17 16:35:22 2018
Total elapsed time: 0.567 seconds.

tnom = 27
temp = 27
method = modified trap
totiter = 6195
traniter = 198
tranpoints = 100
accept = 81
rejected = 19
matrix size = 52
fillins = 112
solver = Normal
Matrix Compiler1: 9.88 KB object code size  2.6/1.6/[0.8]
Matrix Compiler2: 5.86 KB object code size  1.1/2.1/[0.6]

